310265009
     RDKit          3D

 60 60  0  0  0  0  0  0  0  0999 V2000
    1.9225   -1.3731   -1.3438 C   0  0  0  0  0  0  0  0  0  0  0  0
    7.8527   -2.2609   -1.0558 C   0  0  0  0  0  0  0  0  0  0  0  0
    7.3992   -0.7383    2.1799 C   0  0  0  0  0  0  0  0  0  0  0  0
   -1.6827    2.6704    0.6590 C   0  0  0  0  0  0  0  0  0  0  0  0
   -2.8381    2.0025   -0.0523 C   0  0  0  0  0  0  0  0  0  0  0  0
   -0.4967    1.7139    0.6299 C   0  0  0  0  0  0  0  0  0  0  0  0
   -3.2557    0.7066    0.5940 C   0  0  0  0  0  0  0  0  0  0  0  0
    0.6978    2.3121    1.3100 C   0  0  0  0  0  0  0  0  0  0  0  0
   -4.4191    0.0593   -0.1515 C   0  0  0  0  0  0  0  0  0  0  0  0
    1.8505    1.3604    1.2914 C   0  0  0  0  0  0  0  0  0  0  0  0
   -5.6338    0.8872   -0.2066 C   0  0  0  0  0  0  0  0  0  0  0  0
    2.2545    1.0413   -0.1234 C   0  0  0  0  0  0  0  0  0  0  0  0
   -6.7946    0.3021   -0.8522 C   0  0  0  0  0  0  0  0  0  0  0  0
    3.2236   -1.0599   -0.7565 C   0  0  0  0  0  0  0  0  0  0  0  0
    3.4100    0.1026   -0.1598 C   0  0  0  0  0  0  0  0  0  0  0  0
    4.3179   -2.0330   -0.8310 C   0  0  0  0  0  0  0  0  0  0  0  0
    4.6892    0.4597    0.4387 C   0  0  0  0  0  0  0  0  0  0  0  0
    5.6145   -1.7011   -0.2380 C   0  0  0  0  0  0  0  0  0  0  0  0
    5.7879   -0.5314    0.3575 C   0  0  0  0  0  0  0  0  0  0  0  0
   -7.6445   -0.7504   -0.3345 C   0  0  0  0  0  0  0  0  0  0  0  0
    4.1947   -3.1425   -1.3818 O   0  0  0  0  0  0  0  0  0  0  0  0
    4.8691    1.5598    1.0043 O   0  0  0  0  0  0  0  0  0  0  0  0
    6.6908   -2.5780   -0.2745 O   0  0  0  0  0  0  0  0  0  0  0  0
    7.0052   -0.2313    0.9089 O   0  0  0  0  0  0  0  0  0  0  0  0
   -7.0737   -2.0389    0.0828 C   0  0  0  0  0  0  0  0  0  0  0  0
   -6.2779   -2.0489    1.1961 O   0  0  0  0  0  0  0  0  0  0  0  0
    1.0721   -1.2497   -0.6489 H   0  0  0  0  0  0  0  0  0  0  0  0
    1.7116   -0.7942   -2.2787 H   0  0  0  0  0  0  0  0  0  0  0  0
    1.9170   -2.4389   -1.6477 H   0  0  0  0  0  0  0  0  0  0  0  0
    7.5761   -2.1486   -2.1144 H   0  0  0  0  0  0  0  0  0  0  0  0
    8.3184   -1.3213   -0.7220 H   0  0  0  0  0  0  0  0  0  0  0  0
    8.5923   -3.0598   -0.9474 H   0  0  0  0  0  0  0  0  0  0  0  0
    8.4152   -0.3689    2.4248 H   0  0  0  0  0  0  0  0  0  0  0  0
    6.6722   -0.4618    2.9726 H   0  0  0  0  0  0  0  0  0  0  0  0
    7.4092   -1.8613    2.1618 H   0  0  0  0  0  0  0  0  0  0  0  0
   -1.9281    2.9825    1.6753 H   0  0  0  0  0  0  0  0  0  0  0  0
   -1.4392    3.5856    0.0839 H   0  0  0  0  0  0  0  0  0  0  0  0
   -2.5741    1.7607   -1.1041 H   0  0  0  0  0  0  0  0  0  0  0  0
   -3.7260    2.6739   -0.0700 H   0  0  0  0  0  0  0  0  0  0  0  0
   -0.7639    0.8035    1.2396 H   0  0  0  0  0  0  0  0  0  0  0  0
   -0.3359    1.4184   -0.4011 H   0  0  0  0  0  0  0  0  0  0  0  0
   -3.4670    0.8737    1.6495 H   0  0  0  0  0  0  0  0  0  0  0  0
   -2.4308   -0.0627    0.5335 H   0  0  0  0  0  0  0  0  0  0  0  0
    0.3937    2.5785    2.3493 H   0  0  0  0  0  0  0  0  0  0  0  0
    0.9972    3.2864    0.8539 H   0  0  0  0  0  0  0  0  0  0  0  0
   -4.5487   -0.9747    0.0852 H   0  0  0  0  0  0  0  0  0  0  0  0
   -4.0261    0.0717   -1.2605 H   0  0  0  0  0  0  0  0  0  0  0  0
    1.6227    0.4019    1.8037 H   0  0  0  0  0  0  0  0  0  0  0  0
    2.7089    1.8342    1.8297 H   0  0  0  0  0  0  0  0  0  0  0  0
   -5.8656    1.3315    0.8135 H   0  0  0  0  0  0  0  0  0  0  0  0
   -5.3899    1.8554   -0.7859 H   0  0  0  0  0  0  0  0  0  0  0  0
    2.6560    2.0129   -0.5442 H   0  0  0  0  0  0  0  0  0  0  0  0
    1.4543    0.7466   -0.7952 H   0  0  0  0  0  0  0  0  0  0  0  0
   -7.5053    1.1931   -1.1235 H   0  0  0  0  0  0  0  0  0  0  0  0
   -6.4521    0.0554   -1.9380 H   0  0  0  0  0  0  0  0  0  0  0  0
   -8.4784   -0.9921   -1.1099 H   0  0  0  0  0  0  0  0  0  0  0  0
   -8.3252   -0.3370    0.5122 H   0  0  0  0  0  0  0  0  0  0  0  0
   -7.8656   -2.8567    0.1587 H   0  0  0  0  0  0  0  0  0  0  0  0
   -6.4210   -2.4260   -0.7727 H   0  0  0  0  0  0  0  0  0  0  0  0
   -5.6374   -2.8023    1.1943 H   0  0  0  0  0  0  0  0  0  0  0  0
  4  5  1  0
  4  6  1  0
  5  7  1  0
  6  8  1  0
  7  9  1  0
  8 10  1  0
  9 11  1  0
 10 12  1  0
 11 13  1  0
  1 14  1  0
 12 15  1  0
 14 15  2  0
 14 16  1  0
 15 17  1  0
 16 18  1  0
 17 19  1  0
 18 19  2  0
 16 21  2  0
 17 22  2  0
  2 23  1  0
 18 23  1  0
  3 24  1  0
 19 24  1  0
 13 20  1  0
 20 25  1  0
 25 26  1  0
  1 27  1  0
  1 28  1  0
  1 29  1  0
  2 30  1  0
  2 31  1  0
  2 32  1  0
  3 33  1  0
  3 34  1  0
  3 35  1  0
  4 36  1  0
  4 37  1  0
  5 38  1  0
  5 39  1  0
  6 40  1  0
  6 41  1  0
  7 42  1  0
  7 43  1  0
  8 44  1  0
  8 45  1  0
  9 46  1  0
  9 47  1  0
 10 48  1  0
 10 49  1  0
 11 50  1  0
 11 51  1  0
 12 52  1  0
 12 53  1  0
 13 54  1  0
 13 55  1  0
 20 56  1  0
 20 57  1  0
 25 58  1  0
 25 59  1  0
 26 60  1  0
M  END

