46504772
     RDKit          3D

 60 63  0  0  1  0  0  0  0  0999 V2000
    4.2986    0.0696    0.4236 C   0  0  0  0  0  0  0  0  0  0  0  0
    5.4215   -0.3898   -0.2883 C   0  0  0  0  0  0  0  0  0  0  0  0
    5.3448   -1.0769   -1.4666 C   0  0  0  0  0  0  0  0  0  0  0  0
    4.0987   -1.3298   -1.9787 C   0  0  0  0  0  0  0  0  0  0  0  0
    2.9749   -0.9029   -1.3237 C   0  0  0  0  0  0  0  0  0  0  0  0
    3.0679   -0.1963   -0.1092 C   0  0  0  0  0  0  0  0  0  0  0  0
    1.8644    0.2834    0.5937 C   0  0  0  0  0  0  0  0  0  0  0  0
    1.6753   -1.2133   -1.9038 C   0  0  0  0  0  0  0  0  0  0  0  0
    0.4990   -0.7772   -1.1863 C   0  0  0  0  0  0  0  0  0  0  0  0
    0.6553   -0.5651    0.2593 C   0  0  2  0  0  0  0  0  0  0  0  0
   -0.5939   -0.0488    0.9162 C   0  0  0  0  0  0  0  0  0  0  0  0
   -0.6540   -0.5670   -1.8293 C   0  0  0  0  0  0  0  0  0  0  0  0
   -1.8661   -0.1427   -1.1466 C   0  0  1  0  0  0  0  0  0  0  0  0
   -1.7853   -0.7247    0.2706 C   0  0  2  0  0  0  0  0  0  0  0  0
   -3.0576   -0.6109    1.0134 C   0  0  1  0  0  0  0  0  0  0  0  0
   -2.1251    1.2922   -0.9658 C   0  0  0  0  0  0  0  0  0  0  0  0
   -3.2099    1.6467   -0.0144 C   0  0  0  0  0  0  0  0  0  0  0  0
   -3.6355    0.7773    0.8899 C   0  0  0  0  0  0  0  0  0  0  0  0
    4.5519    0.7903    1.5992 N   0  0  0  0  0  0  0  0  0  0  0  0
   -4.0060   -1.5484    0.5152 N   0  0  0  0  0  0  0  0  0  0  0  0
   -2.9659   -0.7297   -1.7843 O   0  0  0  0  0  0  0  0  0  0  0  0
    5.6019    1.8479    1.4535 C   0  0  0  0  0  0  0  0  0  0  0  0
    4.0158    0.6720    2.9047 C   0  0  0  0  0  0  0  0  0  0  0  0
   -5.2314   -1.0364    0.0275 C   0  0  0  0  0  0  0  0  0  0  0  0
   -3.9462   -2.8607    1.0048 C   0  0  0  0  0  0  0  0  0  0  0  0
   -4.6517    1.0807    1.7937 O   0  0  0  0  0  0  0  0  0  0  0  0
    3.9300   -2.0315   -3.1770 O   0  0  0  0  0  0  0  0  0  0  0  0
    1.5805   -1.8491   -3.0013 O   0  0  0  0  0  0  0  0  0  0  0  0
   -0.6595   -0.7692   -3.2021 O   0  0  0  0  0  0  0  0  0  0  0  0
   -1.5301    2.2291   -1.5237 O   0  0  0  0  0  0  0  0  0  0  0  0
   -3.8671    2.9412   -0.0402 C   0  0  0  0  0  0  0  0  0  0  0  0
   -4.8165    3.1811    0.8059 O   0  0  0  0  0  0  0  0  0  0  0  0
   -3.5804    4.0096   -0.9072 N   0  0  0  0  0  0  0  0  0  0  0  0
    6.4200   -0.1978    0.1195 H   0  0  0  0  0  0  0  0  0  0  0  0
    6.2178   -1.4327   -2.0187 H   0  0  0  0  0  0  0  0  0  0  0  0
    1.6859    1.3730    0.4442 H   0  0  0  0  0  0  0  0  0  0  0  0
    2.0144    0.1048    1.6856 H   0  0  0  0  0  0  0  0  0  0  0  0
    0.8661   -1.5686    0.7236 H   0  0  0  0  0  0  0  0  0  0  0  0
   -0.6565    1.0628    0.7253 H   0  0  0  0  0  0  0  0  0  0  0  0
   -0.5120   -0.2567    1.9950 H   0  0  0  0  0  0  0  0  0  0  0  0
   -1.5388   -1.8132    0.1694 H   0  0  0  0  0  0  0  0  0  0  0  0
   -2.8667   -0.7518    2.0971 H   0  0  0  0  0  0  0  0  0  0  0  0
   -2.6728   -1.3840   -2.4904 H   0  0  0  0  0  0  0  0  0  0  0  0
    6.3301    1.6989    2.2730 H   0  0  0  0  0  0  0  0  0  0  0  0
    6.1230    1.7650    0.4927 H   0  0  0  0  0  0  0  0  0  0  0  0
    5.1359    2.8513    1.5662 H   0  0  0  0  0  0  0  0  0  0  0  0
    4.8229    0.9803    3.6576 H   0  0  0  0  0  0  0  0  0  0  0  0
    3.7186   -0.3174    3.2460 H   0  0  0  0  0  0  0  0  0  0  0  0
    3.2418    1.4776    3.0839 H   0  0  0  0  0  0  0  0  0  0  0  0
   -5.1171   -0.0201   -0.3467 H   0  0  0  0  0  0  0  0  0  0  0  0
   -6.0168   -0.9544    0.8346 H   0  0  0  0  0  0  0  0  0  0  0  0
   -5.6771   -1.7327   -0.7195 H   0  0  0  0  0  0  0  0  0  0  0  0
   -3.1869   -2.9925    1.8176 H   0  0  0  0  0  0  0  0  0  0  0  0
   -4.9229   -3.1792    1.4150 H   0  0  0  0  0  0  0  0  0  0  0  0
   -3.6700   -3.6012    0.2119 H   0  0  0  0  0  0  0  0  0  0  0  0
   -4.5524    1.1147    2.7878 H   0  0  0  0  0  0  0  0  0  0  0  0
    4.6992   -2.3974   -3.7193 H   0  0  0  0  0  0  0  0  0  0  0  0
   -0.3037   -0.0832   -3.8437 H   0  0  0  0  0  0  0  0  0  0  0  0
   -4.1525    4.1215   -1.7913 H   0  0  0  0  0  0  0  0  0  0  0  0
   -2.8276    4.6823   -0.6791 H   0  0  0  0  0  0  0  0  0  0  0  0
  1  2  2  0
  2  3  1  0
  3  4  2  0
  4  5  1  0
  1  6  1  0
  6  7  1  0
  5  6  2  0
  5  8  1  0
  8  9  1  0
  7 10  1  0
 10 11  1  0
  9 10  1  0
  9 12  2  0
 12 13  1  0
 11 14  1  0
 14 15  1  0
 13 14  1  0
 13 16  1  0
 16 17  1  0
 17 18  2  0
 15 18  1  0
  1 19  1  0
 15 20  1  0
 13 21  1  6
 19 22  1  0
 19 23  1  0
 20 24  1  0
 20 25  1  0
 18 26  1  0
  4 27  1  0
  8 28  2  0
 12 29  1  0
 16 30  2  0
 17 31  1  0
 31 32  2  0
 31 33  1  0
  2 34  1  0
  3 35  1  0
  7 36  1  0
  7 37  1  0
 10 38  1  1
 11 39  1  0
 11 40  1  0
 14 41  1  6
 15 42  1  1
 21 43  1  0
 22 44  1  0
 22 45  1  0
 22 46  1  0
 23 47  1  0
 23 48  1  0
 23 49  1  0
 24 50  1  0
 24 51  1  0
 24 52  1  0
 25 53  1  0
 25 54  1  0
 25 55  1  0
 26 56  1  0
 27 57  1  0
 29 58  1  0
 33 59  1  0
 33 60  1  0
M  END

