
     RDKit          3D

 13 12  0  0  0  0  0  0  0  0999 V2000
   -4.3446   -0.7804   -1.6953 C   0  0  0  0  0  0  0  0  0  0  0  0
   -4.0782   -0.3652   -0.3242 C   0  0  0  0  0  0  0  0  0  0  0  0
   -4.6862   -1.1282    0.7748 C   0  0  0  0  0  0  0  0  0  0  0  0
   -2.9052    0.4567   -0.0386 C   0  0  0  0  0  0  0  0  0  0  0  0
   -1.5746   -0.1667   -0.4048 C   0  0  0  0  0  0  0  0  0  0  0  0
   -0.5482    0.7943   -0.0476 N   0  0  0  0  0  0  0  0  0  0  0  0
    0.8424    0.4928   -0.2750 C   0  0  0  0  0  0  0  0  0  0  0  0
    1.0617   -0.6160   -0.7816 O   0  0  0  0  0  0  0  0  0  0  0  0
    1.7978    1.5187    0.1159 C   0  0  0  0  0  0  0  0  0  0  0  0
    3.2308    1.2371   -0.0653 C   0  0  0  0  0  0  0  0  0  0  0  0
    3.8315    0.1065    0.6433 C   0  0  0  0  0  0  0  0  0  0  0  0
    3.7808    0.0877    2.1219 C   0  0  0  0  0  0  0  0  0  0  0  0
    3.5920   -1.1967   -0.0235 C   0  0  0  0  0  0  0  0  0  0  0  0
  1  2  1  0
  2  3  1  0
  2  4  1  0
  4  5  1  0
  5  6  1  0
  6  7  1  0
  7  8  2  0
  7  9  1  0
  9 10  1  0
 10 11  1  0
 11 12  1  0
 11 13  1  0
M  END

