
     RDKit          3D

 50 54  0  0  0  0  0  0  0  0999 V2000
    3.8743    0.2962   -0.7166 C   0  0  0  0  0  0  0  0  0  0  0  0
    4.6067   -0.5950    0.4841 C   0  0  2  0  0  0  0  0  0  0  0  0
    5.9870   -0.8226   -0.4450 C   0  0  0  0  0  0  0  0  0  0  0  0
    6.3611    0.5834   -0.6238 N   0  0  0  0  0  0  0  0  0  0  0  0
    7.1562    1.2118    0.2163 N   0  0  0  0  0  0  0  0  0  0  0  0
    7.3125    2.4593   -0.1995 C   0  0  0  0  0  0  0  0  0  0  0  0
    6.5892    2.5832   -1.3234 N   0  0  0  0  0  0  0  0  0  0  0  0
    6.0149    1.4206   -1.5637 N   0  0  0  0  0  0  0  0  0  0  0  0
    3.9612   -1.9504   -0.0268 N   0  0  0  0  0  0  0  0  0  0  0  0
    2.5239   -1.8988   -0.0030 C   0  0  0  0  0  0  0  0  0  0  0  0
    1.7993   -2.9568   -0.4012 N   0  0  0  0  0  0  0  0  0  0  0  0
    0.4542   -2.9574   -0.3974 C   0  0  0  0  0  0  0  0  0  0  0  0
   -0.2531   -1.8478    0.0245 C   0  0  0  0  0  0  0  0  0  0  0  0
   -1.5824   -1.7420    0.0681 C   0  0  0  0  0  0  0  0  0  0  0  0
   -2.2361   -0.5397    0.5248 C   0  0  0  0  0  0  0  0  0  0  0  0
   -3.5718   -0.5545    0.5247 O   0  0  0  0  0  0  0  0  0  0  0  0
   -4.6922   -0.0605    0.0556 C   0  0  0  0  0  0  0  0  0  0  0  0
   -5.4984   -0.9790   -0.6866 C   0  0  0  0  0  0  0  0  0  0  0  0
   -6.6801   -0.6397   -1.2383 C   0  0  0  0  0  0  0  0  0  0  0  0
   -7.1604    0.6343   -1.1011 C   0  0  0  0  0  0  0  0  0  0  0  0
   -8.3469    1.0318   -1.6392 F   0  0  0  0  0  0  0  0  0  0  0  0
   -6.4123    1.5371   -0.3954 C   0  0  0  0  0  0  0  0  0  0  0  0
   -5.1958    1.1917    0.1743 C   0  0  0  0  0  0  0  0  0  0  0  0
   -4.5701    2.1898    0.8725 F   0  0  0  0  0  0  0  0  0  0  0  0
   -1.4474    0.4980    0.9162 C   0  0  0  0  0  0  0  0  0  0  0  0
   -1.9285    1.5875    1.3334 O   0  0  0  0  0  0  0  0  0  0  0  0
   -0.0882    0.3688    0.8631 N   0  0  0  0  0  0  0  0  0  0  0  0
    0.6950    1.5284    1.2998 C   0  0  0  0  0  0  0  0  0  0  0  0
    0.4995   -0.7544    0.4360 C   0  0  0  0  0  0  0  0  0  0  0  0
    1.8288   -0.8232    0.4060 N   0  0  0  0  0  0  0  0  0  0  0  0
   -0.6139   -2.3935   -0.1172 O   0  0  0  0  0  0  0  0  0  0  0  0
   -0.5618   -1.3932    0.6431 C   0  0  0  0  0  0  0  0  0  0  0  0
    0.6986   -0.5961    0.7060 C   0  0  0  0  0  0  0  0  0  0  0  0
    1.7563   -1.1439   -0.1941 C   0  0  0  0  0  0  0  0  0  0  0  0
    2.9768   -0.3172   -0.0901 C   0  0  0  0  0  0  0  0  0  0  0  0
    3.1242    0.7516   -0.9368 C   0  0  0  0  0  0  0  0  0  0  0  0
    4.2507    1.5604   -0.8813 C   0  0  0  0  0  0  0  0  0  0  0  0
    5.2442    1.3039    0.0275 C   0  0  0  0  0  0  0  0  0  0  0  0
    6.3881    2.0833    0.1209 O   0  0  0  0  0  0  0  0  0  0  0  0
    5.1036    0.2375    0.8768 C   0  0  0  0  0  0  0  0  0  0  0  0
    3.9668   -0.5803    0.8222 C   0  0  0  0  0  0  0  0  0  0  0  0
   -1.7072   -1.0814    1.3972 N   0  0  0  0  0  0  0  0  0  0  0  0
   -2.9426   -1.8039    1.3816 C   0  0  0  0  0  0  0  0  0  0  0  0
   -3.5980   -1.8546    0.0259 C   0  0  0  0  0  0  0  0  0  0  0  0
   -3.8636   -0.4391   -0.3814 C   0  0  0  0  0  0  0  0  0  0  0  0
   -5.0124    0.2228   -0.0933 C   0  0  0  0  0  0  0  0  0  0  0  0
   -5.1675    1.5285   -0.5109 C   0  0  0  0  0  0  0  0  0  0  0  0
   -4.1679    2.1774   -1.2216 C   0  0  0  0  0  0  0  0  0  0  0  0
   -2.9938    1.5208   -1.5236 C   0  0  0  0  0  0  0  0  0  0  0  0
   -2.8805    0.2171   -1.0871 C   0  0  0  0  0  0  0  0  0  0  0  0
  2  1  1  6
  2  3  1  0
  3  4  1  0
  4  5  1  0
  5  6  2  0
  6  7  1  0
  7  8  2  0
  2  9  1  0
  9 10  1  0
 10 11  2  0
 11 12  1  0
 12 13  2  0
 13 14  1  0
 14 15  2  0
 15 16  1  0
 16 17  1  0
 17 18  2  0
 18 19  1  0
 19 20  2  0
 20 21  1  0
 20 22  1  0
 22 23  2  0
 23 24  1  0
 15 25  1  0
 25 26  2  0
 25 27  1  0
 27 28  1  0
 27 29  1  0
 29 30  2  0
 31 32  2  0
 32 33  1  0
 33 34  1  0
 34 35  1  0
 35 36  2  0
 36 37  1  0
 37 38  2  0
 38 39  1  0
 38 40  1  0
 40 41  2  0
 32 42  1  0
 42 43  1  0
 43 44  1  0
 44 45  1  0
 45 46  2  0
 46 47  1  0
 47 48  2  0
 48 49  1  0
 49 50  2  0
  8  4  1  0
 30 10  1  0
 41 35  1  0
 50 45  1  0
 29 13  1  0
 23 17  1  0
M  END

