
     RDKit          3D

 12 12  0  0  0  0  0  0  0  0999 V2000
    4.1631   -0.5252   -0.5240 O   0  0  0  0  0  1  0  0  0  0  0  0
    2.9003   -0.1462   -0.0955 C   0  0  0  0  0  0  0  0  0  0  0  0
    2.2931    0.8489   -0.5684 O   0  0  0  0  0  0  0  0  0  0  0  0
    2.2141   -0.9301    0.9642 C   0  0  0  0  0  0  0  0  0  0  0  0
    0.8617   -0.3852    1.2940 C   0  0  0  0  0  0  0  0  0  0  0  0
   -0.0597   -0.3810    0.1329 C   0  0  0  0  0  0  0  0  0  0  0  0
    0.3035   -0.8170   -0.9829 O   0  0  0  0  0  0  0  0  0  0  0  0
   -1.3739    0.1164    0.2578 N   0  0  0  0  0  0  0  0  0  0  0  0
   -2.3678    0.1772   -0.7903 C   0  0  0  0  0  0  0  0  0  0  0  0
   -3.6723    0.1983   -0.0210 C   0  0  0  0  0  0  0  0  0  0  0  0
   -3.3125    1.1824    1.1005 C   0  0  0  0  0  0  0  0  0  0  0  0
   -1.9495    0.6617    1.4979 C   0  0  0  0  0  0  0  0  0  0  0  0
  1  2  1  0
  2  3  2  0
  2  4  1  0
  4  5  1  0
  5  6  1  0
  6  7  2  0
  6  8  1  0
  8  9  1  0
  9 10  1  0
 10 11  1  0
 11 12  1  0
 12  8  1  0
M  RAD  1   1   2
M  END

