
     RDKit          3D

 43 45  0  0  0  0  0  0  0  0999 V2000
   -3.6456   -0.5315   -1.0675 C   0  0  0  0  0  0  0  0  0  0  0  0
   -3.1910    0.5658    0.0760 C   0  0  1  0  0  0  0  0  0  0  0  0
   -4.5642    0.5352    0.7402 O   0  0  0  0  0  0  0  0  0  0  0  0
   -2.5979   -0.5922    1.0731 C   0  0  0  0  0  0  0  0  0  0  0  0
   -1.2430   -0.8030    0.6821 N   0  0  0  0  0  0  0  0  0  0  0  0
   -0.2686    0.2321    0.7128 C   0  0  0  0  0  0  0  0  0  0  0  0
   -0.6684    1.3566    1.1072 O   0  0  0  0  0  0  0  0  0  0  0  0
    1.1173   -0.0474    0.2961 C   0  0  0  0  0  0  0  0  0  0  0  0
    1.9892    1.1829    0.4036 C   0  0  0  0  0  0  0  0  0  0  0  0
    3.4039    0.9351   -0.0119 C   0  0  0  0  0  0  0  0  0  0  0  0
    3.5451    0.4720   -1.4373 C   0  0  0  0  0  0  0  0  0  0  0  0
    2.8139   -0.8234   -1.7063 C   0  0  0  0  0  0  0  0  0  0  0  0
    3.3094   -1.9000   -0.8681 N   0  0  0  0  0  4  0  0  0  0  0  0
    5.1938   -0.6283    2.6793 C   0  0  0  0  0  0  0  0  0  0  0  0
    4.1872   -0.7892    1.3776 C   0  0  2  0  0  0  0  0  0  0  0  0
    4.5026    0.7384    0.8425 C   0  0  0  0  0  0  0  0  0  0  0  0
    5.9445    0.6306    0.6391 N   0  0  0  0  0  0  0  0  0  0  0  0
    6.8585    0.8935    1.5415 N   0  0  0  0  0  0  0  0  0  0  0  0
    8.1012    0.6888    1.0180 C   0  0  0  0  0  0  0  0  0  0  0  0
    7.8950    0.2894   -0.2446 N   0  0  0  0  0  0  0  0  0  0  0  0
    6.5886    0.2561   -0.4679 N   0  0  0  0  0  0  0  0  0  0  0  0
    2.9205   -0.3616    2.2037 N   0  0  0  0  0  0  0  0  0  0  0  0
    1.6991   -0.3319    1.5043 C   0  0  0  0  0  0  0  0  0  0  0  0
    0.6289    0.0367    2.2310 N   0  0  0  0  0  0  0  0  0  0  0  0
   -0.6149    0.1264    1.7514 C   0  0  0  0  0  0  0  0  0  0  0  0
   -0.8090   -0.1786    0.4292 C   0  0  0  0  0  0  0  0  0  0  0  0
   -2.0781   -0.1075   -0.1399 C   0  0  0  0  0  0  0  0  0  0  0  0
   -2.2617   -0.4134   -1.4587 C   0  0  0  0  0  0  0  0  0  0  0  0
   -3.5433   -0.3318   -1.9950 O   0  0  0  0  0  0  0  0  0  0  0  0
   -4.6278    0.0525   -1.2165 C   0  0  0  0  0  0  0  0  0  0  0  0
   -5.7275   -0.7511   -1.0061 C   0  0  0  0  0  0  0  0  0  0  0  0
   -6.7993   -0.3503   -0.2265 C   0  0  0  0  0  0  0  0  0  0  0  0
   -6.8028    0.8816    0.3733 C   0  0  0  0  0  0  0  0  0  0  0  0
   -7.8268    1.3257    1.1479 F   0  0  0  0  0  0  0  0  0  0  0  0
   -5.7133    1.7051    0.1782 C   0  0  0  0  0  0  0  0  0  0  0  0
   -4.6377    1.2929   -0.6091 C   0  0  0  0  0  0  0  0  0  0  0  0
   -3.5556    2.0865   -0.8147 F   0  0  0  0  0  0  0  0  0  0  0  0
   -1.1688   -0.7866   -2.1884 C   0  0  0  0  0  0  0  0  0  0  0  0
   -1.3667   -1.0634   -3.4028 O   0  0  0  0  0  0  0  0  0  0  0  0
    0.0519   -0.8476   -1.6117 N   0  0  0  0  0  0  0  0  0  0  0  0
    1.1574   -1.2477   -2.4379 C   0  0  0  0  0  0  0  0  0  0  0  0
    0.2820   -0.5567   -0.3208 C   0  0  0  0  0  0  0  0  0  0  0  0
    1.5223   -0.6293    0.2235 N   0  0  0  0  0  0  0  0  0  0  0  0
  2  1  1  6
  2  3  1  0
  2  4  1  0
  4  5  1  0
  5  6  1  0
  6  7  2  0
  6  8  1  0
  8  9  1  0
  9 10  1  0
 10 11  1  0
 11 12  1  0
 12 13  1  0
 15 14  1  1
 15 16  1  0
 16 17  1  0
 17 18  1  0
 18 19  2  0
 19 20  1  0
 20 21  2  0
 15 22  1  0
 22 23  1  0
 23 24  2  0
 24 25  1  0
 25 26  2  0
 26 27  1  0
 27 28  2  0
 28 29  1  0
 29 30  1  0
 30 31  2  0
 31 32  1  0
 32 33  2  0
 33 34  1  0
 33 35  1  0
 35 36  2  0
 36 37  1  0
 28 38  1  0
 38 39  2  0
 38 40  1  0
 40 41  1  0
 40 42  1  0
 42 43  2  0
 21 17  1  0
 43 23  1  0
 42 26  1  0
 36 30  1  0
M  CHG  1  13   1
M  END

