
     RDKit          3D

 49 53  0  0  0  0  0  0  0  0999 V2000
    1.2620   -0.6756    1.5181 C   0  0  0  0  0  0  0  0  0  0  0  0
    3.0274   -0.6258    1.0269 S   0  0  0  0  0  0  0  0  0  0  0  0
    3.4944   -2.0383    0.0447 C   0  0  0  0  0  0  0  0  0  0  0  0
    2.9049   -2.1328   -1.3115 C   0  0  0  0  0  0  0  0  0  0  0  0
    3.2148   -1.0401   -2.2625 C   0  0  0  0  0  0  0  0  0  0  0  0
    2.7852    0.2569   -1.8459 N   0  0  0  0  0  0  0  0  0  0  0  0
    1.3646    0.5483   -1.6036 C   0  0  0  0  0  0  0  0  0  0  0  0
    0.6315   -0.4379   -1.7990 O   0  0  0  0  0  0  0  0  0  0  0  0
    0.9764    1.8768   -1.1843 C   0  0  0  0  0  0  0  0  0  0  0  0
   -0.3411    2.2818   -0.8444 C   0  0  0  0  0  0  0  0  0  0  0  0
   -1.0562    1.6652    0.2816 C   0  0  0  0  0  0  0  0  0  0  0  0
   -1.0426    2.2368    1.5729 C   0  0  0  0  0  0  0  0  0  0  0  0
   -1.7399    1.4542    2.3674 N   0  0  0  0  0  0  0  0  0  0  0  0
   -2.2089    0.4088    1.6810 C   0  0  0  0  0  0  0  0  0  0  0  0
   -2.9939   -0.6846    2.0146 C   0  0  0  0  0  0  0  0  0  0  0  0
   -3.3684   -1.6485    1.0965 C   0  0  0  0  0  0  0  0  0  0  0  0
   -2.9456   -1.5172   -0.1984 C   0  0  0  0  0  0  0  0  0  0  0  0
   -2.1726   -0.4501   -0.5456 C   0  0  0  0  0  0  0  0  0  0  0  0
   -1.7918    0.5222    0.3708 C   0  0  0  0  0  0  0  0  0  0  0  0
   -5.8861   -0.8402    1.9383 C   0  0  0  0  0  0  0  0  0  0  0  0
   -4.2415   -1.0584    1.9110 C   0  0  2  0  0  0  0  0  0  0  0  0
   -3.9408    0.4666    2.4734 C   0  0  0  0  0  0  0  0  0  0  0  0
   -4.4941    1.4004    1.5457 N   0  0  0  0  0  0  0  0  0  0  0  0
   -5.6967    1.9471    1.4925 N   0  0  0  0  0  0  0  0  0  0  0  0
   -5.7992    2.7832    0.4427 C   0  0  0  0  0  0  0  0  0  0  0  0
   -4.5903    2.7166   -0.1433 N   0  0  0  0  0  0  0  0  0  0  0  0
   -3.8190    1.8904    0.5204 N   0  0  0  0  0  0  0  0  0  0  0  0
   -4.1312   -0.7217    0.3653 N   0  0  0  0  0  0  0  0  0  0  0  0
   -2.7865   -0.7946   -0.1205 C   0  0  0  0  0  0  0  0  0  0  0  0
   -2.6404   -0.5168   -1.4283 N   0  0  0  0  0  0  0  0  0  0  0  0
   -1.4194   -0.5532   -2.0009 C   0  0  0  0  0  0  0  0  0  0  0  0
   -0.3096   -0.8778   -1.2401 C   0  0  0  0  0  0  0  0  0  0  0  0
    0.9478   -0.9242   -1.7902 C   0  0  0  0  0  0  0  0  0  0  0  0
    2.0261   -1.2543   -0.9866 C   0  0  0  0  0  0  0  0  0  0  0  0
    3.3299   -1.3174   -1.4907 O   0  0  0  0  0  0  0  0  0  0  0  0
    4.2144   -0.4275   -0.8628 C   0  0  0  0  0  0  0  0  0  0  0  0
    5.3256   -0.8759   -0.2045 C   0  0  0  0  0  0  0  0  0  0  0  0
    6.1664    0.0335    0.3977 C   0  0  0  0  0  0  0  0  0  0  0  0
    5.9520    1.3924    0.3766 C   0  0  0  0  0  0  0  0  0  0  0  0
    6.7713    2.2918    0.9646 F   0  0  0  0  0  0  0  0  0  0  0  0
    4.8280    1.8374   -0.2900 C   0  0  0  0  0  0  0  0  0  0  0  0
    3.9745    0.9320   -0.8998 C   0  0  0  0  0  0  0  0  0  0  0  0
    2.8594    1.3319   -1.5646 F   0  0  0  0  0  0  0  0  0  0  0  0
    1.8123   -1.5238    0.3258 C   0  0  0  0  0  0  0  0  0  0  0  0
    2.7917   -1.8251    1.0623 O   0  0  0  0  0  0  0  0  0  0  0  0
    0.5789   -1.4735    0.8441 N   0  0  0  0  0  0  0  0  0  0  0  0
    0.4028   -1.7727    2.2641 C   0  0  0  0  0  0  0  0  0  0  0  0
   -0.4950   -1.1558    0.0925 C   0  0  0  0  0  0  0  0  0  0  0  0
   -1.7313   -1.1106    0.6351 N   0  0  0  0  0  0  0  0  0  0  0  0
  1  2  1  0
  2  3  1  0
  3  4  1  0
  4  5  1  0
  5  6  1  0
  6  7  1  0
  7  8  2  0
  7  9  1  0
  9 10  1  0
 10 11  1  0
 11 12  2  0
 12 13  1  0
 13 14  1  0
 14 15  2  0
 15 16  1  0
 16 17  2  0
 17 18  1  0
 18 19  2  0
 21 20  1  6
 21 22  1  0
 22 23  1  0
 23 24  1  0
 24 25  2  0
 25 26  1  0
 26 27  2  0
 21 28  1  0
 28 29  1  0
 29 30  2  0
 30 31  1  0
 31 32  2  0
 32 33  1  0
 33 34  2  0
 34 35  1  0
 35 36  1  0
 36 37  2  0
 37 38  1  0
 38 39  2  0
 39 40  1  0
 39 41  1  0
 41 42  2  0
 42 43  1  0
 34 44  1  0
 44 45  2  0
 44 46  1  0
 46 47  1  0
 46 48  1  0
 48 49  2  0
 19 11  1  0
 27 23  1  0
 49 29  1  0
 19 14  1  0
 48 32  1  0
 42 36  1  0
M  END

