
     RDKit          3D

 42 44  0  0  0  0  0  0  0  0999 V2000
   -4.8567   -0.2843    0.5354 C   0  0  0  0  0  0  0  0  0  0  0  0
   -3.5586    0.3554   -0.3372 C   0  0  1  0  0  0  0  0  0  0  0  0
   -3.4968    1.5933    0.5760 O   0  0  0  0  0  0  0  0  0  0  0  0
   -2.4466   -0.4821    0.5806 C   0  0  0  0  0  0  0  0  0  0  0  0
   -1.1387   -0.0831   -0.0036 C   0  0  0  0  0  0  0  0  0  0  0  0
   -1.0742    0.7164   -0.9696 O   0  0  0  0  0  0  0  0  0  0  0  0
    0.1110   -0.5521    0.4601 N   0  0  0  0  0  0  0  0  0  0  0  0
    1.3755   -0.1294   -0.1492 C   0  0  0  0  0  0  0  0  0  0  0  0
    2.5580   -0.7507    0.5029 C   0  0  0  0  0  0  0  0  0  0  0  0
    3.7762   -0.2563   -0.1889 C   0  0  0  0  0  0  0  0  0  0  0  0
    5.0289   -0.6791    0.2188 O   0  0  0  0  0  1  0  0  0  0  0  0
    3.7219    0.5521   -1.1560 O   0  0  0  0  0  0  0  0  0  0  0  0
   -3.5227    0.9426   -1.4908 C   0  0  0  0  0  0  0  0  0  0  0  0
   -4.3091   -0.4907   -1.7603 C   0  0  2  0  0  0  0  0  0  0  0  0
   -5.8105    0.1427   -1.5180 C   0  0  0  0  0  0  0  0  0  0  0  0
   -5.8548    0.6718   -0.1903 N   0  0  0  0  0  0  0  0  0  0  0  0
   -5.5301    1.8985    0.0953 N   0  0  0  0  0  0  0  0  0  0  0  0
   -5.6786    2.0754    1.4130 C   0  0  0  0  0  0  0  0  0  0  0  0
   -6.1082    0.9275    1.9673 N   0  0  0  0  0  0  0  0  0  0  0  0
   -6.2030    0.0924    0.9477 N   0  0  0  0  0  0  0  0  0  0  0  0
   -4.1286   -0.9977   -0.2802 N   0  0  0  0  0  0  0  0  0  0  0  0
   -2.7771   -1.1268    0.1555 C   0  0  0  0  0  0  0  0  0  0  0  0
   -2.4787   -1.5541    1.4098 N   0  0  0  0  0  0  0  0  0  0  0  0
   -1.1941   -1.6671    1.7955 C   0  0  0  0  0  0  0  0  0  0  0  0
   -0.1742   -1.3486    0.9165 C   0  0  0  0  0  0  0  0  0  0  0  0
    1.1566   -1.4454    1.2573 C   0  0  0  0  0  0  0  0  0  0  0  0
    2.1141   -1.1064    0.3161 C   0  0  0  0  0  0  0  0  0  0  0  0
    3.4708   -1.1853    0.6062 O   0  0  0  0  0  0  0  0  0  0  0  0
    4.3113   -0.0835    0.5528 C   0  0  0  0  0  0  0  0  0  0  0  0
    3.8890    1.1844    0.2106 C   0  0  0  0  0  0  0  0  0  0  0  0
    4.7611    2.2599    0.1689 C   0  0  0  0  0  0  0  0  0  0  0  0
    6.0969    2.0955    0.4721 C   0  0  0  0  0  0  0  0  0  0  0  0
    6.9393    3.1575    0.4272 F   0  0  0  0  0  0  0  0  0  0  0  0
    6.5192    0.8261    0.8146 C   0  0  0  0  0  0  0  0  0  0  0  0
    5.6459   -0.2515    0.8565 C   0  0  0  0  0  0  0  0  0  0  0  0
    6.0814   -1.5093    1.1993 F   0  0  0  0  0  0  0  0  0  0  0  0
    1.7804   -0.6752   -0.9511 C   0  0  0  0  0  0  0  0  0  0  0  0
    2.6822   -0.3692   -1.7992 O   0  0  0  0  0  0  0  0  0  0  0  0
    0.4747   -0.5892   -1.2595 N   0  0  0  0  0  0  0  0  0  0  0  0
    0.1059   -0.1349   -2.5953 C   0  0  0  0  0  0  0  0  0  0  0  0
   -0.4863   -0.9173   -0.3499 C   0  0  0  0  0  0  0  0  0  0  0  0
   -1.7727   -0.8222   -0.6839 N   0  0  0  0  0  0  0  0  0  0  0  0
  2  1  1  1
  2  3  1  0
  2  4  1  0
  4  5  1  0
  5  6  2  0
  5  7  1  0
  7  8  1  0
  8  9  1  0
  9 10  1  0
 10 11  1  0
 10 12  2  0
 14 13  1  1
 14 15  1  0
 15 16  1  0
 16 17  1  0
 17 18  2  0
 18 19  1  0
 19 20  2  0
 14 21  1  0
 21 22  1  0
 22 23  2  0
 23 24  1  0
 24 25  2  0
 25 26  1  0
 26 27  2  0
 27 28  1  0
 28 29  1  0
 29 30  2  0
 30 31  1  0
 31 32  2  0
 32 33  1  0
 32 34  1  0
 34 35  2  0
 35 36  1  0
 27 37  1  0
 37 38  2  0
 37 39  1  0
 39 40  1  0
 39 41  1  0
 41 42  2  0
 20 16  1  0
 42 22  1  0
 41 25  1  0
 35 29  1  0
M  RAD  1  11   2
M  END

