
     RDKit          3D

 14 13  0  0  0  0  0  0  0  0999 V2000
    3.5056   -1.9088    2.0580 C   0  0  0  0  0  0  0  0  0  0  0  0
    4.5273   -0.5319    1.4694 S   0  0  0  0  0  0  0  0  0  0  0  0
    3.4887    0.5400    0.4407 C   0  0  0  0  0  0  0  0  0  0  0  0
    3.0414   -0.1453   -0.8310 C   0  0  0  0  0  0  0  0  0  0  0  0
    2.2340   -1.3859   -0.4369 C   0  0  0  0  0  0  0  0  0  0  0  0
    1.0883   -0.9689    0.3459 N   0  0  0  0  0  0  0  0  0  0  0  0
    0.1644   -0.0887   -0.2586 C   0  0  0  0  0  0  0  0  0  0  0  0
    0.3700    0.2911   -1.4304 O   0  0  0  0  0  0  0  0  0  0  0  0
   -1.0387    0.4070    0.4286 C   0  0  0  0  0  0  0  0  0  0  0  0
   -1.8697    1.3252   -0.3963 C   0  0  0  0  0  0  0  0  0  0  0  0
   -3.0686    1.7590    0.4168 C   0  0  0  0  0  0  0  0  0  0  0  0
   -3.8637    0.5599    0.7958 C   0  0  0  0  0  0  0  0  0  0  0  0
   -5.0479    0.7612    1.5636 N   0  0  0  0  0  0  0  0  0  0  0  0
   -3.5310   -0.6140    0.4658 O   0  0  0  0  0  0  0  0  0  0  0  0
  1  2  1  0
  2  3  1  0
  3  4  1  0
  4  5  1  0
  5  6  1  0
  6  7  1  0
  7  8  2  0
  7  9  1  0
  9 10  1  0
 10 11  1  0
 11 12  1  0
 12 13  1  0
 12 14  2  0
M  END

