
     RDKit          3D

 42 44  0  0  0  0  0  0  0  0999 V2000
    3.3570    0.8968    0.9071 C   0  0  0  0  0  0  0  0  0  0  0  0
    2.8697    0.0875   -0.2774 C   0  0  0  0  0  0  0  0  0  0  0  0
    4.0073   -0.2339   -1.2231 C   0  0  0  0  0  0  0  0  0  0  0  0
    2.2473   -1.2117    0.1749 C   0  0  0  0  0  0  0  0  0  0  0  0
    1.0734   -1.0120    1.0762 C   0  0  0  0  0  0  0  0  0  0  0  0
   -0.0152   -0.2269    0.3956 C   0  0  0  0  0  0  0  0  0  0  0  0
    0.0851    0.1839   -0.7629 O   0  0  0  0  0  0  0  0  0  0  0  0
   -1.1669    0.0272    1.1324 N   0  0  0  0  0  0  0  0  0  0  0  0
   -2.3593    0.7016    0.8302 C   0  0  0  0  0  0  0  0  0  0  0  0
   -3.1476    0.0952   -0.2622 C   0  0  0  0  0  0  0  0  0  0  0  0
   -2.4037    0.0550   -1.5512 C   0  0  0  0  0  0  0  0  0  0  0  0
   -4.5472    0.6372   -0.3761 C   0  0  0  0  0  0  0  0  0  0  0  0
    4.1809   -2.1440   -3.0247 C   0  0  0  0  0  0  0  0  0  0  0  0
    4.9395   -0.9620   -2.1768 C   0  0  2  0  0  0  0  0  0  0  0  0
    4.5378   -1.5741   -0.7145 C   0  0  0  0  0  0  0  0  0  0  0  0
    5.1189   -0.6664    0.2397 N   0  0  0  0  0  0  0  0  0  0  0  0
    6.3314   -0.7978    0.7282 N   0  0  0  0  0  0  0  0  0  0  0  0
    6.5680    0.2074    1.5883 C   0  0  0  0  0  0  0  0  0  0  0  0
    5.4582    0.9522    1.6045 N   0  0  0  0  0  0  0  0  0  0  0  0
    4.5723    0.4115    0.7753 N   0  0  0  0  0  0  0  0  0  0  0  0
    3.7584    0.0468   -2.2700 N   0  0  0  0  0  0  0  0  0  0  0  0
    2.4855   -0.3477   -1.7840 C   0  0  0  0  0  0  0  0  0  0  0  0
    2.3180   -1.5611   -1.2629 N   0  0  0  0  0  0  0  0  0  0  0  0
    1.1499   -1.9860   -0.7922 C   0  0  0  0  0  0  0  0  0  0  0  0
    0.0540   -1.1453   -0.8383 C   0  0  0  0  0  0  0  0  0  0  0  0
   -1.1780   -1.5436   -0.3614 C   0  0  0  0  0  0  0  0  0  0  0  0
   -2.2265   -0.6641   -0.4351 C   0  0  0  0  0  0  0  0  0  0  0  0
   -3.4540   -1.0229    0.0250 O   0  0  0  0  0  0  0  0  0  0  0  0
   -4.0510   -0.2990    1.0430 C   0  0  0  0  0  0  0  0  0  0  0  0
   -3.4646    0.7961    1.6395 C   0  0  0  0  0  0  0  0  0  0  0  0
   -4.0899    1.5012    2.6587 C   0  0  0  0  0  0  0  0  0  0  0  0
   -5.3351    1.1003    3.0930 C   0  0  0  0  0  0  0  0  0  0  0  0
   -6.0002    1.7588    4.0962 F   0  0  0  0  0  0  0  0  0  0  0  0
   -5.9421    0.0081    2.5119 C   0  0  0  0  0  0  0  0  0  0  0  0
   -5.2909   -0.6879    1.4844 C   0  0  0  0  0  0  0  0  0  0  0  0
   -5.8924   -1.7529    0.9241 F   0  0  0  0  0  0  0  0  0  0  0  0
   -1.9839    0.5704   -0.9841 C   0  0  0  0  0  0  0  0  0  0  0  0
   -2.9406    1.4105   -1.0661 O   0  0  0  0  0  0  0  0  0  0  0  0
   -0.7985    0.9565   -1.4440 N   0  0  0  0  0  0  0  0  0  0  0  0
   -0.5430    2.2624   -2.0244 C   0  0  0  0  0  0  0  0  0  0  0  0
    0.2569    0.1095   -1.3849 C   0  0  0  0  0  0  0  0  0  0  0  0
    1.4611    0.4921   -1.8484 N   0  0  0  0  0  0  0  0  0  0  0  0
  1  2  1  0
  2  3  1  0
  2  4  1  0
  4  5  1  0
  5  6  1  0
  6  7  2  0
  6  8  1  0
  8  9  1  0
  9 10  1  0
 10 11  1  0
 10 12  1  0
 14 13  1  6
 14 15  1  0
 15 16  1  0
 16 17  1  0
 17 18  2  0
 18 19  1  0
 19 20  2  0
 14 21  1  0
 21 22  1  0
 22 23  2  0
 23 24  1  0
 24 25  2  0
 25 26  1  0
 26 27  2  0
 27 28  1  0
 28 29  1  0
 29 30  2  0
 30 31  1  0
 31 32  2  0
 32 33  1  0
 32 34  1  0
 34 35  2  0
 35 36  1  0
 27 37  1  0
 37 38  2  0
 37 39  1  0
 39 40  1  0
 39 41  1  0
 41 42  2  0
 20 16  1  0
 42 22  1  0
 41 25  1  0
 35 29  1  0
M  END

