
     RDKit          3D

 13 12  0  0  0  0  0  0  0  0999 V2000
   -4.3183   -0.6581   -0.7416 C   0  0  0  0  0  0  0  0  0  0  0  0
   -3.9281   -0.0088    0.5656 C   0  0  0  0  0  0  0  0  0  0  0  0
   -4.0209    1.4968    0.5099 C   0  0  0  0  0  0  0  0  0  0  0  0
   -2.6440   -0.5102    1.1246 C   0  0  0  0  0  0  0  0  0  0  0  0
   -1.4889   -0.2819    0.2050 C   0  0  0  0  0  0  0  0  0  0  0  0
   -1.6382    0.2785   -0.9117 O   0  0  0  0  0  0  0  0  0  0  0  0
   -0.1900   -0.6907    0.5647 N   0  0  0  0  0  0  0  0  0  0  0  0
    0.9676   -0.4813   -0.3163 C   0  0  0  0  0  0  0  0  0  0  0  0
    2.1610   -1.0540    0.4272 C   0  0  0  0  0  0  0  0  0  0  0  0
    3.4355   -0.9066   -0.3689 C   0  0  0  0  0  0  0  0  0  0  0  0
    3.7323    0.5304   -0.6538 C   0  0  0  0  0  0  0  0  0  0  0  0
    4.9102    0.8108   -1.3997 N   0  0  0  0  0  0  0  0  0  0  0  0
    3.0219    1.4749   -0.2830 O   0  0  0  0  0  0  0  0  0  0  0  0
  1  2  1  0
  2  3  1  0
  2  4  1  0
  4  5  1  0
  5  6  2  0
  5  7  1  0
  7  8  1  0
  8  9  1  0
  9 10  1  0
 10 11  1  0
 11 12  1  0
 11 13  2  0
M  END

