
     RDKit          3D

 46 48  0  0  0  0  0  0  0  0999 V2000
    4.1246   -2.7578    0.2737 C   0  0  0  0  0  0  0  0  0  0  0  0
    4.6525   -1.4977   -0.6161 C   0  0  2  0  0  0  0  0  0  0  0  0
    5.9944   -1.2823    0.3157 C   0  0  0  0  0  0  0  0  0  0  0  0
    6.6604   -0.1612   -0.3060 N   0  0  0  0  0  0  0  0  0  0  0  0
    7.5601   -0.1526   -1.2600 N   0  0  0  0  0  0  0  0  0  0  0  0
    7.9148    1.0987   -1.5415 C   0  0  0  0  0  0  0  0  0  0  0  0
    7.1834    1.8808   -0.7061 N   0  0  0  0  0  0  0  0  0  0  0  0
    6.4248    1.0997    0.0396 N   0  0  0  0  0  0  0  0  0  0  0  0
    3.8220   -0.4482    0.1852 N   0  0  0  0  0  0  0  0  0  0  0  0
    2.4053   -0.7025    0.1311 C   0  0  0  0  0  0  0  0  0  0  0  0
    1.8699   -1.7394   -0.5433 N   0  0  0  0  0  0  0  0  0  0  0  0
    0.5619   -2.0168   -0.6230 C   0  0  0  0  0  0  0  0  0  0  0  0
   -0.3176   -1.1582    0.0498 C   0  0  0  0  0  0  0  0  0  0  0  0
   -1.6712   -1.3431    0.0383 C   0  0  0  0  0  0  0  0  0  0  0  0
   -2.5299   -0.4932    0.7032 C   0  0  0  0  0  0  0  0  0  0  0  0
   -3.8727   -0.7610    0.6332 O   0  0  0  0  0  0  0  0  0  0  0  0
   -4.8484    0.0542    0.1280 C   0  0  0  0  0  0  0  0  0  0  0  0
   -5.8756    0.4616    0.9519 C   0  0  0  0  0  0  0  0  0  0  0  0
   -6.8922    1.2832    0.5090 C   0  0  0  0  0  0  0  0  0  0  0  0
   -6.9362    1.7447   -0.7912 C   0  0  0  0  0  0  0  0  0  0  0  0
   -7.9395    2.5556   -1.2283 F   0  0  0  0  0  0  0  0  0  0  0  0
   -5.9061    1.3351   -1.6141 C   0  0  0  0  0  0  0  0  0  0  0  0
   -4.8908    0.5137   -1.1693 C   0  0  0  0  0  0  0  0  0  0  0  0
   -3.8715    0.1087   -1.9847 F   0  0  0  0  0  0  0  0  0  0  0  0
   -1.9621    0.5509    1.3798 C   0  0  0  0  0  0  0  0  0  0  0  0
   -2.7211    1.3370    1.9917 O   0  0  0  0  0  0  0  0  0  0  0  0
   -0.6337    0.7592    1.4096 N   0  0  0  0  0  0  0  0  0  0  0  0
   -0.0395    1.8683    2.1291 C   0  0  0  0  0  0  0  0  0  0  0  0
    0.1977   -0.0871    0.7496 C   0  0  0  0  0  0  0  0  0  0  0  0
    1.5362    0.1018    0.7652 N   0  0  0  0  0  0  0  0  0  0  0  0
   -5.5608    1.9593    0.6724 N   0  0  0  0  0  0  0  0  0  0  0  0
   -4.3409    1.1902    0.5693 C   0  0  0  0  0  0  0  0  0  0  0  0
   -3.4787    1.5401   -0.3069 N   0  0  0  0  0  4  0  0  0  0  0  0
   -4.1079    0.0691    1.4102 N   0  0  0  0  0  0  0  0  0  0  0  0
   -2.8391   -0.6461    1.2055 C   0  0  0  0  0  0  0  0  0  0  0  0
   -2.8295   -1.1070   -0.2506 C   0  0  0  0  0  0  0  0  0  0  0  0
   -1.4793   -1.8327   -0.4121 C   0  0  0  0  0  0  0  0  0  0  0  0
   -0.4484   -0.7824   -0.0709 C   0  0  0  0  0  0  0  0  0  0  0  0
    0.9324   -1.2998   -0.1705 C   0  0  0  0  0  0  0  0  0  0  0  0
    1.1642   -2.4876   -0.5503 O   0  0  0  0  0  0  0  0  0  0  0  0
    2.0839   -0.5121    0.1507 N   0  0  0  0  0  0  0  0  0  0  0  0
    3.4264   -1.0286    0.0579 C   0  0  0  0  0  0  0  0  0  0  0  0
    4.4135    0.0392    0.4623 C   0  0  0  0  0  0  0  0  0  0  0  0
    4.3540    1.2474   -0.3655 C   0  0  0  0  0  0  0  0  0  0  0  0
    5.4757    1.8569   -0.9594 O   0  0  0  0  0  1  0  0  0  0  0  0
    3.2345    1.7940   -0.5782 O   0  0  0  0  0  0  0  0  0  0  0  0
  2  1  1  1
  2  3  1  0
  3  4  1  0
  4  5  1  0
  5  6  2  0
  6  7  1  0
  7  8  2  0
  2  9  1  0
  9 10  1  0
 10 11  2  0
 11 12  1  0
 12 13  2  0
 13 14  1  0
 14 15  2  0
 15 16  1  0
 16 17  1  0
 17 18  2  0
 18 19  1  0
 19 20  2  0
 20 21  1  0
 20 22  1  0
 22 23  2  0
 23 24  1  0
 15 25  1  0
 25 26  2  0
 25 27  1  0
 27 28  1  0
 27 29  1  0
 29 30  2  0
 31 32  1  0
 32 33  2  0
 32 34  1  0
 34 35  1  0
 35 36  1  0
 36 37  1  0
 37 38  1  0
 38 39  1  0
 39 40  2  0
 39 41  1  0
 41 42  1  0
 42 43  1  0
 43 44  1  0
 44 45  1  0
 44 46  2  0
  8  4  1  0
 30 10  1  0
 29 13  1  0
 23 17  1  0
M  CHG  1  33   1
M  RAD  1  45   2
M  END

