
     RDKit          3D

 44 46  0  0  0  0  0  0  0  0999 V2000
    3.8559   -1.9204   -0.2880 C   0  0  0  0  0  0  0  0  0  0  0  0
    4.0037   -0.4375   -0.4339 C   0  0  0  0  0  0  0  0  0  0  0  0
    5.2337   -0.0272   -1.1877 C   0  0  0  0  0  0  0  0  0  0  0  0
    3.8012    0.3208    0.8363 C   0  0  0  0  0  0  0  0  0  0  0  0
    2.3795    0.0288    1.3321 C   0  0  0  0  0  0  0  0  0  0  0  0
    1.4838    0.4765    0.2937 N   0  0  0  0  0  0  0  0  0  0  0  0
    0.0743    0.3784    0.3759 C   0  0  0  0  0  0  0  0  0  0  0  0
   -0.4133   -0.1262    1.4105 O   0  0  0  0  0  0  0  0  0  0  0  0
   -0.8202    0.8528   -0.7193 C   0  0  0  0  0  0  0  0  0  0  0  0
   -2.2523    0.6131   -0.3364 C   0  0  0  0  0  0  0  0  0  0  0  0
   -2.4728   -0.8743   -0.1099 C   0  0  0  0  0  0  0  0  0  0  0  0
   -3.9016   -1.1560    0.2771 C   0  0  0  0  0  0  0  0  0  0  0  0
   -4.7810   -0.6679   -0.8722 C   0  0  0  0  0  0  0  0  0  0  0  0
   -6.1908   -0.9040   -0.5782 N   0  0  0  0  0  4  0  0  0  0  0  0
    6.0630   -0.8677    1.0169 C   0  0  0  0  0  0  0  0  0  0  0  0
    4.4859   -1.3720    1.0288 C   0  0  2  0  0  0  0  0  0  0  0  0
    4.5173   -1.8940   -0.5323 C   0  0  0  0  0  0  0  0  0  0  0  0
    4.8451   -0.7637   -1.3637 N   0  0  0  0  0  0  0  0  0  0  0  0
    6.0687   -0.4048   -1.6999 N   0  0  0  0  0  0  0  0  0  0  0  0
    5.9913    0.6871   -2.4777 C   0  0  0  0  0  0  0  0  0  0  0  0
    4.6925    0.9925   -2.6130 N   0  0  0  0  0  0  0  0  0  0  0  0
    4.0229    0.0951   -1.9265 N   0  0  0  0  0  0  0  0  0  0  0  0
    3.9141    0.0557    0.6807 N   0  0  0  0  0  0  0  0  0  0  0  0
    2.5047    0.0568    0.5925 C   0  0  0  0  0  0  0  0  0  0  0  0
    1.9108    1.2252    0.2998 N   0  0  0  0  0  0  0  0  0  0  0  0
    0.5574    1.3208    0.1944 C   0  0  0  0  0  0  0  0  0  0  0  0
   -0.2589    0.2255    0.3832 C   0  0  0  0  0  0  0  0  0  0  0  0
   -1.6353    0.2662    0.2885 C   0  0  0  0  0  0  0  0  0  0  0  0
   -2.4151   -0.8573    0.4857 C   0  0  0  0  0  0  0  0  0  0  0  0
   -3.7800   -0.7901    0.3858 O   0  0  0  0  0  0  0  0  0  0  0  0
   -4.3717    0.4282    0.0824 C   0  0  0  0  0  0  0  0  0  0  0  0
   -5.2569    0.9745    0.9695 C   0  0  0  0  0  0  0  0  0  0  0  0
   -5.8412    2.1874    0.6595 C   0  0  0  0  0  0  0  0  0  0  0  0
   -5.5628    2.8578   -0.5046 C   0  0  0  0  0  0  0  0  0  0  0  0
   -6.1909    4.0492   -0.7198 F   0  0  0  0  0  0  0  0  0  0  0  0
   -4.6756    2.3168   -1.4007 C   0  0  0  0  0  0  0  0  0  0  0  0
   -4.0835    1.0983   -1.0978 C   0  0  0  0  0  0  0  0  0  0  0  0
   -3.1987    0.5018   -1.9315 F   0  0  0  0  0  0  0  0  0  0  0  0
   -1.7492   -2.0361    0.7852 C   0  0  0  0  0  0  0  0  0  0  0  0
   -2.4567   -3.0535    0.9638 O   0  0  0  0  0  0  0  0  0  0  0  0
   -0.4115   -2.0350    0.8684 N   0  0  0  0  0  0  0  0  0  0  0  0
    0.2325   -3.2914    1.1836 C   0  0  0  0  0  0  0  0  0  0  0  0
    0.3692   -0.9665    0.6833 C   0  0  0  0  0  0  0  0  0  0  0  0
    1.7125   -1.0069    0.7759 N   0  0  0  0  0  0  0  0  0  0  0  0
  1  2  1  0
  2  3  1  0
  2  4  1  0
  4  5  1  0
  5  6  1  0
  6  7  1  0
  7  8  2  0
  7  9  1  0
  9 10  1  0
 10 11  1  0
 11 12  1  0
 12 13  1  0
 13 14  1  0
 16 15  1  6
 16 17  1  0
 17 18  1  0
 18 19  1  0
 19 20  2  0
 20 21  1  0
 21 22  2  0
 16 23  1  0
 23 24  1  0
 24 25  2  0
 25 26  1  0
 26 27  2  0
 27 28  1  0
 28 29  2  0
 29 30  1  0
 30 31  1  0
 31 32  2  0
 32 33  1  0
 33 34  2  0
 34 35  1  0
 34 36  1  0
 36 37  2  0
 37 38  1  0
 29 39  1  0
 39 40  2  0
 39 41  1  0
 41 42  1  0
 41 43  1  0
 43 44  2  0
 22 18  1  0
 44 24  1  0
 43 27  1  0
 37 31  1  0
M  CHG  1  14   1
M  END

