
     RDKit          3D

 39 41  0  0  0  0  0  0  0  0999 V2000
   -3.8121    0.2099   -0.0984 C   0  0  0  0  0  0  0  0  0  0  0  0
   -2.5127    0.5012   -0.8352 C   0  0  0  0  0  0  0  0  0  0  0  0
   -1.3525   -0.0786   -0.1281 C   0  0  0  0  0  0  0  0  0  0  0  0
   -1.5465   -0.7062    0.9313 O   0  0  0  0  0  0  0  0  0  0  0  0
   -0.0664    0.0958   -0.6721 N   0  0  0  0  0  0  0  0  0  0  0  0
    1.0551   -0.4911    0.0548 C   0  0  0  0  0  0  0  0  0  0  0  0
    2.3554   -0.0920   -0.8573 C   0  0  1  0  0  0  0  0  0  0  0  0
    2.5543    1.3545   -0.1115 C   0  0  0  0  0  0  0  0  0  0  0  0
    3.3253   -0.7934    0.0862 O   0  0  0  0  0  0  0  0  0  0  0  0
    6.3086   -0.7042   -1.6020 C   0  0  0  0  0  0  0  0  0  0  0  0
    4.8122   -0.5285   -2.2912 C   0  0  2  0  0  0  0  0  0  0  0  0
    4.7014    1.0774   -1.9366 C   0  0  0  0  0  0  0  0  0  0  0  0
    4.7855    1.2318   -0.5286 N   0  0  0  0  0  0  0  0  0  0  0  0
    5.9399    1.4022    0.0941 N   0  0  0  0  0  0  0  0  0  0  0  0
    5.7488    1.5220    1.4115 C   0  0  0  0  0  0  0  0  0  0  0  0
    4.4269    1.4206    1.5975 N   0  0  0  0  0  0  0  0  0  0  0  0
    3.8633    1.2461    0.4165 N   0  0  0  0  0  0  0  0  0  0  0  0
    4.0335   -1.0020   -1.0011 N   0  0  0  0  0  0  0  0  0  0  0  0
    2.6219   -0.9918   -1.1974 C   0  0  0  0  0  0  0  0  0  0  0  0
    2.0019   -0.6343   -2.3140 N   0  0  0  0  0  0  0  0  0  0  0  0
    0.6758   -0.6275   -2.4903 C   0  0  0  0  0  0  0  0  0  0  0  0
   -0.1273   -1.0209   -1.4369 C   0  0  0  0  0  0  0  0  0  0  0  0
   -1.5095   -1.0449   -1.5297 C   0  0  0  0  0  0  0  0  0  0  0  0
   -2.2794   -1.4443   -0.4549 C   0  0  0  0  0  0  0  0  0  0  0  0
   -3.6653   -1.4726   -0.5357 O   0  0  0  0  0  0  0  0  0  0  0  0
   -4.4414   -0.7006    0.3254 C   0  0  0  0  0  0  0  0  0  0  0  0
   -5.3490   -1.3018    1.1763 C   0  0  0  0  0  0  0  0  0  0  0  0
   -6.0782   -0.4547    1.9979 C   0  0  0  0  0  0  0  0  0  0  0  0
   -5.9202    0.9010    1.9795 C   0  0  0  0  0  0  0  0  0  0  0  0
   -6.6654    1.6558    2.8077 F   0  0  0  0  0  0  0  0  0  0  0  0
   -4.9977    1.4659    1.1098 C   0  0  0  0  0  0  0  0  0  0  0  0
   -4.2469    0.6637    0.2711 C   0  0  0  0  0  0  0  0  0  0  0  0
   -3.3615    1.2517   -0.5589 F   0  0  0  0  0  0  0  0  0  0  0  0
   -1.5900   -1.8058    0.6817 C   0  0  0  0  0  0  0  0  0  0  0  0
   -2.2664   -2.1714    1.6690 O   0  0  0  0  0  0  0  0  0  0  0  0
   -0.2516   -1.7826    0.7717 N   0  0  0  0  0  0  0  0  0  0  0  0
    0.4395   -2.1756    2.0004 C   0  0  0  0  0  0  0  0  0  0  0  0
    0.5261   -1.3930   -0.2736 C   0  0  0  0  0  0  0  0  0  0  0  0
    1.8644   -1.3783   -0.1587 N   0  0  0  0  0  0  0  0  0  0  0  0
  1  2  1  0
  2  3  1  0
  3  4  2  0
  3  5  1  0
  5  6  1  0
  6  7  1  0
  7  8  1  1
  7  9  1  0
 11 10  1  1
 11 12  1  0
 12 13  1  0
 13 14  1  0
 14 15  2  0
 15 16  1  0
 16 17  2  0
 11 18  1  0
 18 19  1  0
 19 20  2  0
 20 21  1  0
 21 22  2  0
 22 23  1  0
 23 24  2  0
 24 25  1  0
 25 26  1  0
 26 27  2  0
 27 28  1  0
 28 29  2  0
 29 30  1  0
 29 31  1  0
 31 32  2  0
 32 33  1  0
 24 34  1  0
 34 35  2  0
 34 36  1  0
 36 37  1  0
 36 38  1  0
 38 39  2  0
 17 13  1  0
 39 19  1  0
 38 22  1  0
 32 26  1  0
M  END

