
     RDKit          3D

 44 46  0  0  0  0  0  0  0  0999 V2000
    4.7554    0.4697    1.4504 C   0  0  0  0  0  0  0  0  0  0  0  0
    4.5820    0.7477   -0.0208 C   0  0  0  0  0  0  0  0  0  0  0  0
    4.4214    2.2330   -0.2447 C   0  0  0  0  0  0  0  0  0  0  0  0
    3.4501   -0.0493   -0.6234 C   0  0  0  0  0  0  0  0  0  0  0  0
    2.1277    0.2674    0.0435 C   0  0  0  0  0  0  0  0  0  0  0  0
    1.0766   -0.5539   -0.6053 C   0  0  0  0  0  0  0  0  0  0  0  0
    1.2752   -1.3631   -1.5421 O   0  0  0  0  0  0  0  0  0  0  0  0
   -0.2528   -0.4199   -0.1375 N   0  0  0  0  0  0  0  0  0  0  0  0
   -1.3096   -1.1997   -0.7394 C   0  0  0  0  0  0  0  0  0  0  0  0
   -2.5947   -0.8351   -0.0288 C   0  0  0  0  0  0  0  0  0  0  0  0
   -2.8825    0.6646   -0.1903 C   0  0  0  0  0  0  0  0  0  0  0  0
   -4.1712    1.0091    0.5270 C   0  0  0  0  0  0  0  0  0  0  0  0
   -5.3481    0.2359   -0.0282 C   0  0  0  0  0  0  0  0  0  0  0  0
   -5.1295   -1.2064    0.1152 N   0  0  0  0  0  4  0  0  0  0  0  0
    5.6612   -2.6639   -2.3399 C   0  0  0  0  0  0  0  0  0  0  0  0
    4.1269   -3.0617   -1.8730 C   0  0  2  0  0  0  0  0  0  0  0  0
    3.3894   -2.5962   -3.2650 C   0  0  0  0  0  0  0  0  0  0  0  0
    3.6134   -1.2322   -3.5072 N   0  0  0  0  0  0  0  0  0  0  0  0
    4.6741   -0.8088   -4.2181 N   0  0  0  0  0  0  0  0  0  0  0  0
    4.6775    0.5130   -4.3158 C   0  0  0  0  0  0  0  0  0  0  0  0
    3.5864    0.9432   -3.6469 N   0  0  0  0  0  0  0  0  0  0  0  0
    2.9724   -0.1266   -3.1758 N   0  0  0  0  0  0  0  0  0  0  0  0
    3.8794   -1.6946   -1.1435 N   0  0  0  0  0  0  0  0  0  0  0  0
    2.5686   -1.6500   -0.5692 C   0  0  0  0  0  0  0  0  0  0  0  0
    1.6845   -2.6582   -0.6564 N   0  0  0  0  0  0  0  0  0  0  0  0
    0.4528   -2.6275   -0.1219 C   0  0  0  0  0  0  0  0  0  0  0  0
    0.0273   -1.5078    0.5698 C   0  0  0  0  0  0  0  0  0  0  0  0
   -1.2282   -1.4268    1.1374 C   0  0  0  0  0  0  0  0  0  0  0  0
   -1.5679   -0.2740    1.8079 C   0  0  0  0  0  0  0  0  0  0  0  0
   -2.8099   -0.1297    2.3987 O   0  0  0  0  0  0  0  0  0  0  0  0
   -3.6750    0.8636    2.0396 C   0  0  0  0  0  0  0  0  0  0  0  0
   -3.3852    1.7974    1.0668 C   0  0  0  0  0  0  0  0  0  0  0  0
   -4.2927    2.8025    0.7219 C   0  0  0  0  0  0  0  0  0  0  0  0
   -5.5063    2.8582    1.3728 C   0  0  0  0  0  0  0  0  0  0  0  0
   -6.4334    3.8035    1.0910 F   0  0  0  0  0  0  0  0  0  0  0  0
   -5.7973    1.9227    2.3479 C   0  0  0  0  0  0  0  0  0  0  0  0
   -4.8951    0.9344    2.6812 C   0  0  0  0  0  0  0  0  0  0  0  0
   -5.2391    0.0381    3.6530 F   0  0  0  0  0  0  0  0  0  0  0  0
   -0.6435    0.7454    1.8833 C   0  0  0  0  0  0  0  0  0  0  0  0
   -0.9863    1.7827    2.5024 O   0  0  0  0  0  0  0  0  0  0  0  0
    0.5774    0.6606    1.3286 N   0  0  0  0  0  0  0  0  0  0  0  0
    1.4769    1.7834    1.4617 C   0  0  0  0  0  0  0  0  0  0  0  0
    0.9344   -0.4714    0.6603 C   0  0  0  0  0  0  0  0  0  0  0  0
    2.1575   -0.5489    0.1079 N   0  0  0  0  0  0  0  0  0  0  0  0
  1  2  1  0
  2  3  1  0
  2  4  1  0
  4  5  1  0
  5  6  1  0
  6  7  2  0
  6  8  1  0
  8  9  1  0
  9 10  1  0
 10 11  1  0
 11 12  1  0
 12 13  1  0
 13 14  1  0
 16 15  1  6
 16 17  1  0
 17 18  1  0
 18 19  1  0
 19 20  2  0
 20 21  1  0
 21 22  2  0
 16 23  1  0
 23 24  1  0
 24 25  2  0
 25 26  1  0
 26 27  2  0
 27 28  1  0
 28 29  2  0
 29 30  1  0
 30 31  1  0
 31 32  2  0
 32 33  1  0
 33 34  2  0
 34 35  1  0
 34 36  1  0
 36 37  2  0
 37 38  1  0
 29 39  1  0
 39 40  2  0
 39 41  1  0
 41 42  1  0
 41 43  1  0
 43 44  2  0
 22 18  1  0
 44 24  1  0
 43 27  1  0
 37 31  1  0
M  CHG  1  14   1
M  END

