
     RDKit          3D

 13 12  0  0  0  0  0  0  0  0999 V2000
    4.4534   -0.3608    0.5042 C   0  0  0  0  0  0  0  0  0  0  0  0
    4.2792    0.8788   -0.2712 C   0  0  0  0  0  0  0  0  0  0  0  0
    2.6397    1.0946   -0.5191 C   0  0  2  0  0  0  0  0  0  0  0  0
    2.3934    1.1361    1.1308 C   0  0  0  0  0  0  0  0  0  0  0  0
    2.3165   -0.4800   -0.6621 C   0  0  0  0  0  0  0  0  0  0  0  0
    0.9507   -0.5868   -0.9437 N   0  0  0  0  0  0  0  0  0  0  0  0
   -0.1105   -0.1799   -0.1453 C   0  0  0  0  0  0  0  0  0  0  0  0
   -0.0546    0.3547    0.9784 O   0  0  0  0  0  0  0  0  0  0  0  0
   -1.4907   -0.4152   -0.7099 C   0  0  0  0  0  0  0  0  0  0  0  0
   -2.5214    0.0725    0.2594 C   0  0  0  0  0  0  0  0  0  0  0  0
   -3.8911   -0.1733   -0.3267 C   0  0  0  0  0  0  0  0  0  0  0  0
   -4.9185    0.3309    0.6774 C   0  0  0  0  0  0  0  0  0  0  0  0
   -4.0460   -1.6715   -0.5177 C   0  0  0  0  0  0  0  0  0  0  0  0
  1  2  1  0
  2  3  1  0
  3  4  1  1
  3  5  1  0
  5  6  1  0
  6  7  1  0
  7  8  2  0
  7  9  1  0
  9 10  1  0
 10 11  1  0
 11 12  1  0
 11 13  1  0
M  END

