
     RDKit          3D

 43 45  0  0  0  0  0  0  0  0999 V2000
   -4.3988    1.2979   -0.5497 C   0  0  0  0  0  0  0  0  0  0  0  0
   -3.5841    0.1101   -1.0235 C   0  0  0  0  0  0  0  0  0  0  0  0
   -4.5048   -1.0766   -1.1044 C   0  0  0  0  0  0  0  0  0  0  0  0
   -2.4167   -0.1279   -0.0974 C   0  0  0  0  0  0  0  0  0  0  0  0
   -1.5547    1.1031   -0.0918 C   0  0  0  0  0  0  0  0  0  0  0  0
   -0.4092    1.0132    0.7477 N   0  0  0  0  0  0  0  0  0  0  0  0
    0.6196    0.0164    0.5706 C   0  0  0  0  0  0  0  0  0  0  0  0
    0.4417   -0.7640   -0.3670 O   0  0  0  0  0  0  0  0  0  0  0  0
    1.7341    0.0612    1.5216 C   0  0  0  0  0  0  0  0  0  0  0  0
    2.8626   -0.8424    1.3457 C   0  0  0  0  0  0  0  0  0  0  0  0
    3.6526   -0.7100    0.1208 C   0  0  0  0  0  0  0  0  0  0  0  0
    2.9654   -0.9109   -1.1725 C   0  0  0  0  0  0  0  0  0  0  0  0
    4.5922    0.4718    0.0999 C   0  0  0  0  0  0  0  0  0  0  0  0
    5.8835   -2.2359   -0.6643 C   0  0  0  0  0  0  0  0  0  0  0  0
    4.2348   -2.1216   -0.7877 C   0  0  2  0  0  0  0  0  0  0  0  0
    4.2809   -0.7837   -1.7487 C   0  0  0  0  0  0  0  0  0  0  0  0
    4.9582    0.2511   -1.0271 N   0  0  0  0  0  0  0  0  0  0  0  0
    4.3199    1.0917   -0.2526 N   0  0  0  0  0  0  0  0  0  0  0  0
    5.2017    1.9379    0.2854 C   0  0  0  0  0  0  0  0  0  0  0  0
    6.3881    1.5837   -0.1862 N   0  0  0  0  0  0  0  0  0  0  0  0
    6.2334    0.5691   -0.9744 N   0  0  0  0  0  0  0  0  0  0  0  0
    4.0726   -1.3159    0.5619 N   0  0  0  0  0  0  0  0  0  0  0  0
    2.7215   -0.9942    0.8517 C   0  0  0  0  0  0  0  0  0  0  0  0
    2.4746   -0.3171    1.9645 N   0  0  0  0  0  0  0  0  0  0  0  0
    1.2072    0.0213    2.2993 C   0  0  0  0  0  0  0  0  0  0  0  0
    0.1352   -0.3239    1.5002 C   0  0  0  0  0  0  0  0  0  0  0  0
   -1.1663   -0.0179    1.7727 C   0  0  0  0  0  0  0  0  0  0  0  0
   -2.1577   -0.4289    0.8764 C   0  0  0  0  0  0  0  0  0  0  0  0
   -3.4792   -0.1411    1.1141 O   0  0  0  0  0  0  0  0  0  0  0  0
   -4.1864    0.6248    0.1944 C   0  0  0  0  0  0  0  0  0  0  0  0
   -3.6102    1.1151   -0.9592 C   0  0  0  0  0  0  0  0  0  0  0  0
   -4.3443    1.8722   -1.8492 C   0  0  0  0  0  0  0  0  0  0  0  0
   -5.6739    2.1812   -1.6472 C   0  0  0  0  0  0  0  0  0  0  0  0
   -6.3629    2.9284   -2.5450 F   0  0  0  0  0  0  0  0  0  0  0  0
   -6.2515    1.6918   -0.4943 C   0  0  0  0  0  0  0  0  0  0  0  0
   -5.5163    0.9351    0.3944 C   0  0  0  0  0  0  0  0  0  0  0  0
   -6.0740    0.4421    1.5424 F   0  0  0  0  0  0  0  0  0  0  0  0
   -1.8441   -1.1353   -0.2737 C   0  0  0  0  0  0  0  0  0  0  0  0
   -2.7452   -1.5009   -1.0744 O   0  0  0  0  0  0  0  0  0  0  0  0
   -0.5543   -1.4181   -0.5088 N   0  0  0  0  0  0  0  0  0  0  0  0
   -0.2382   -2.1575   -1.7150 C   0  0  0  0  0  0  0  0  0  0  0  0
    0.4167   -1.0245    0.3537 C   0  0  0  0  0  0  0  0  0  0  0  0
    1.6764   -1.3288    0.0759 N   0  0  0  0  0  0  0  0  0  0  0  0
  1  2  1  0
  2  3  1  0
  2  4  1  0
  4  5  1  0
  5  6  1  0
  6  7  1  0
  7  8  2  0
  7  9  1  0
  9 10  1  0
 10 11  1  0
 11 12  1  0
 11 13  1  0
 15 14  1  1
 15 16  1  0
 16 17  1  0
 17 18  1  0
 18 19  2  0
 19 20  1  0
 20 21  2  0
 15 22  1  0
 22 23  1  0
 23 24  2  0
 24 25  1  0
 25 26  2  0
 26 27  1  0
 27 28  2  0
 28 29  1  0
 29 30  1  0
 30 31  2  0
 31 32  1  0
 32 33  2  0
 33 34  1  0
 33 35  1  0
 35 36  2  0
 36 37  1  0
 28 38  1  0
 38 39  2  0
 38 40  1  0
 40 41  1  0
 40 42  1  0
 42 43  2  0
 21 17  1  0
 43 23  1  0
 42 26  1  0
 36 30  1  0
M  END

