
     RDKit          3D

 20 21  0  0  0  0  0  0  0  0999 V2000
    4.5382    0.2894   -0.6357 O   0  0  0  0  0  1  0  0  0  0  0  0
    3.5946   -0.6714   -0.9715 C   0  0  0  0  0  0  0  0  0  0  0  0
    3.3908   -1.0195   -2.1614 O   0  0  0  0  0  0  0  0  0  0  0  0
    2.7585   -1.3552    0.0705 C   0  0  0  0  0  0  0  0  0  0  0  0
    3.1138   -0.8195    1.4373 C   0  0  0  0  0  0  0  0  0  0  0  0
    2.8809    0.6555    1.5581 C   0  0  0  0  0  0  0  0  0  0  0  0
    1.4510    1.0132    1.3187 C   0  0  0  0  0  0  0  0  0  0  0  0
    0.6573    0.0790    1.0717 O   0  0  0  0  0  0  0  0  0  0  0  0
    0.9619    2.3259    1.3567 N   0  0  0  0  0  0  0  0  0  0  0  0
   -0.3358    2.8252    1.1477 C   0  0  0  0  0  0  0  0  0  0  0  0
   -1.0237    2.6856   -0.1182 C   0  0  0  0  0  0  0  0  0  0  0  0
   -1.2958    1.3579   -0.6590 C   0  0  0  0  0  0  0  0  0  0  0  0
   -0.6637    0.7499   -1.7262 C   0  0  0  0  0  0  0  0  0  0  0  0
   -1.2456   -0.4419   -1.8865 N   0  0  0  0  0  0  0  0  0  0  0  0
   -2.2166   -0.6563   -0.9969 C   0  0  0  0  0  0  0  0  0  0  0  0
   -3.0862   -1.6952   -0.7522 C   0  0  0  0  0  0  0  0  0  0  0  0
   -3.9969   -1.6221    0.2615 C   0  0  0  0  0  0  0  0  0  0  0  0
   -4.0301   -0.4741    1.0458 C   0  0  0  0  0  0  0  0  0  0  0  0
   -3.1792    0.5918    0.8384 C   0  0  0  0  0  0  0  0  0  0  0  0
   -2.2736    0.4739   -0.1989 C   0  0  0  0  0  0  0  0  0  0  0  0
  1  2  1  0
  2  3  2  0
  2  4  1  0
  4  5  1  0
  5  6  1  0
  6  7  1  0
  7  8  2  0
  7  9  1  0
  9 10  1  0
 10 11  1  0
 11 12  1  0
 12 13  2  0
 13 14  1  0
 14 15  1  0
 15 16  2  0
 16 17  1  0
 17 18  2  0
 18 19  1  0
 19 20  2  0
 20 12  1  0
 20 15  1  0
M  RAD  1   1   2
M  END

