
     RDKit          3D

 11 10  0  0  0  0  0  0  0  0999 V2000
   -4.6996    0.4503    0.2898 C   0  0  0  0  0  0  0  0  0  0  0  0
   -3.5608   -0.5092    0.6309 C   0  0  0  0  0  0  0  0  0  0  0  0
   -2.3032    0.5140    0.7916 C   0  0  2  0  0  0  0  0  0  0  0  0
   -2.4111    1.0693   -0.7286 C   0  0  0  0  0  0  0  0  0  0  0  0
   -1.2028   -0.6363    0.3993 C   0  0  0  0  0  0  0  0  0  0  0  0
    0.0148    0.1465    0.5007 N   0  0  0  0  0  0  0  0  0  0  0  0
    1.3088   -0.3879    0.2525 C   0  0  0  0  0  0  0  0  0  0  0  0
    1.3285   -1.5935   -0.0633 O   0  0  0  0  0  0  0  0  0  0  0  0
    2.5453    0.4507    0.3669 C   0  0  0  0  0  0  0  0  0  0  0  0
    3.7820   -0.3106    0.0644 C   0  0  0  0  0  0  0  0  0  0  0  0
    5.1981    0.8066    0.2363 S   0  0  0  0  0  0  0  0  0  0  0  0
  1  2  1  0
  2  3  1  0
  3  4  1  6
  3  5  1  0
  5  6  1  0
  6  7  1  0
  7  8  2  0
  7  9  1  0
  9 10  1  0
 10 11  1  0
M  END

