
     RDKit          3D

 42 45  0  0  0  0  0  0  0  0999 V2000
    3.5477    1.4163   -1.8853 C   0  0  0  0  0  0  0  0  0  0  0  0
    2.9164    0.1189   -1.9092 N   0  0  0  0  0  0  0  0  0  0  0  0
    1.9399   -0.1826   -0.8950 C   0  0  0  0  0  0  0  0  0  0  0  0
    1.7221    0.7311   -0.0641 O   0  0  0  0  0  0  0  0  0  0  0  0
    1.2604   -1.5012   -0.8726 C   0  0  0  0  0  0  0  0  0  0  0  0
    0.2646   -1.6403    0.2052 C   0  0  0  0  0  0  0  0  0  0  0  0
   -0.8669   -0.7030    0.1947 C   0  0  0  0  0  0  0  0  0  0  0  0
   -0.8148    0.4912    0.8788 C   0  0  0  0  0  0  0  0  0  0  0  0
   -1.8649    1.3563    0.8664 C   0  0  0  0  0  0  0  0  0  0  0  0
   -3.0113    1.0624    0.1687 C   0  0  0  0  0  0  0  0  0  0  0  0
   -3.0655   -0.1297   -0.5151 C   0  0  0  0  0  0  0  0  0  0  0  0
   -2.0277   -1.0194   -0.5220 C   0  0  0  0  0  0  0  0  0  0  0  0
    5.9932   -1.1453   -1.9874 C   0  0  0  0  0  0  0  0  0  0  0  0
    4.4473   -0.6723   -2.3266 C   0  0  2  0  0  0  0  0  0  0  0  0
    4.7117    0.9041   -1.9503 C   0  0  0  0  0  0  0  0  0  0  0  0
    5.1244    0.9795   -0.5947 N   0  0  0  0  0  0  0  0  0  0  0  0
    4.4272    1.1175    0.5250 N   0  0  0  0  0  0  0  0  0  0  0  0
    5.2428    1.1412    1.5945 C   0  0  0  0  0  0  0  0  0  0  0  0
    6.4847    1.0105    1.0799 N   0  0  0  0  0  0  0  0  0  0  0  0
    6.3843    0.9159   -0.2297 N   0  0  0  0  0  0  0  0  0  0  0  0
    3.8951   -1.0684   -0.9094 N   0  0  0  0  0  0  0  0  0  0  0  0
    2.4935   -0.7904   -0.8063 C   0  0  0  0  0  0  0  0  0  0  0  0
    1.7544   -0.2660   -1.7807 N   0  0  0  0  0  0  0  0  0  0  0  0
    0.4315   -0.0148   -1.6530 C   0  0  0  0  0  0  0  0  0  0  0  0
   -0.2142   -0.3035   -0.4709 C   0  0  0  0  0  0  0  0  0  0  0  0
   -1.5559   -0.0844   -0.2442 C   0  0  0  0  0  0  0  0  0  0  0  0
   -2.1566   -0.3885    0.9525 C   0  0  0  0  0  0  0  0  0  0  0  0
   -3.4701   -0.1856    1.2059 O   0  0  0  0  0  0  0  0  0  0  0  0
   -4.4212    0.3319    0.3804 C   0  0  0  0  0  0  0  0  0  0  0  0
   -5.1122    1.4788    0.7203 C   0  0  0  0  0  0  0  0  0  0  0  0
   -6.0875    2.0110   -0.1243 C   0  0  0  0  0  0  0  0  0  0  0  0
   -6.3962    1.4112   -1.3280 C   0  0  0  0  0  0  0  0  0  0  0  0
   -7.3467    1.9309   -2.1499 F   0  0  0  0  0  0  0  0  0  0  0  0
   -5.6955    0.2668   -1.6500 C   0  0  0  0  0  0  0  0  0  0  0  0
   -4.7427   -0.2547   -0.8269 C   0  0  0  0  0  0  0  0  0  0  0  0
   -4.0374   -1.3912   -1.1321 F   0  0  0  0  0  0  0  0  0  0  0  0
   -1.3698   -0.9286    1.9403 C   0  0  0  0  0  0  0  0  0  0  0  0
   -1.8877   -1.2212    3.0549 O   0  0  0  0  0  0  0  0  0  0  0  0
   -0.0613   -1.1482    1.7355 N   0  0  0  0  0  0  0  0  0  0  0  0
    0.7842   -1.7170    2.7654 C   0  0  0  0  0  0  0  0  0  0  0  0
    0.5351   -0.8470    0.5492 C   0  0  0  0  0  0  0  0  0  0  0  0
    1.8455   -1.0723    0.3588 N   0  0  0  0  0  0  0  0  0  0  0  0
  1  2  1  0
  2  3  1  0
  3  4  2  0
  3  5  1  0
  5  6  1  0
  6  7  1  0
  7  8  2  0
  8  9  1  0
  9 10  2  0
 10 11  1  0
 11 12  2  0
 14 13  1  1
 14 15  1  0
 15 16  1  0
 16 17  1  0
 17 18  2  0
 18 19  1  0
 19 20  2  0
 14 21  1  0
 21 22  1  0
 22 23  2  0
 23 24  1  0
 24 25  2  0
 25 26  1  0
 26 27  2  0
 27 28  1  0
 28 29  1  0
 29 30  2  0
 30 31  1  0
 31 32  2  0
 32 33  1  0
 32 34  1  0
 34 35  2  0
 35 36  1  0
 27 37  1  0
 37 38  2  0
 37 39  1  0
 39 40  1  0
 39 41  1  0
 41 42  2  0
 12  7  1  0
 20 16  1  0
 42 22  1  0
 41 25  1  0
 35 29  1  0
M  END

