
     RDKit          3D

 17 17  0  0  0  0  0  0  0  0999 V2000
    5.5432    0.7811    1.5381 O   0  0  0  0  0  1  0  0  0  0  0  0
    4.4948   -0.1400    1.5539 C   0  0  0  0  0  0  0  0  0  0  0  0
    4.3570   -0.9386    2.5155 O   0  0  0  0  0  0  0  0  0  0  0  0
    3.5309   -0.1803    0.4259 C   0  0  0  0  0  0  0  0  0  0  0  0
    2.5007   -1.2490    0.6734 C   0  0  0  0  0  0  0  0  0  0  0  0
    1.5006   -1.3241   -0.4498 C   0  0  0  0  0  0  0  0  0  0  0  0
    0.7870   -0.0147   -0.5927 C   0  0  0  0  0  0  0  0  0  0  0  0
    1.0816    0.9299    0.1840 O   0  0  0  0  0  0  0  0  0  0  0  0
   -0.2110    0.2086   -1.5692 N   0  0  0  0  0  0  0  0  0  0  0  0
   -0.9046    1.4912   -1.7033 C   0  0  0  0  0  0  0  0  0  0  0  0
   -1.6413    1.8710   -0.4585 C   0  0  0  0  0  0  0  0  0  0  0  0
   -2.6497    0.7962   -0.1825 C   0  0  0  0  0  0  0  0  0  0  0  0
   -3.9229    0.8199   -0.6710 C   0  0  0  0  0  0  0  0  0  0  0  0
   -4.7665   -0.2281   -0.3499 C   0  0  0  0  0  0  0  0  0  0  0  0
   -4.3905   -1.2914    0.4347 C   0  0  0  0  0  0  0  0  0  0  0  0
   -3.0846   -1.2776    0.9126 C   0  0  0  0  0  0  0  0  0  0  0  0
   -2.2246   -0.2541    0.6124 C   0  0  0  0  0  0  0  0  0  0  0  0
  1  2  1  0
  2  3  2  0
  2  4  1  0
  4  5  1  0
  5  6  1  0
  6  7  1  0
  7  8  2  0
  7  9  1  0
  9 10  1  0
 10 11  1  0
 11 12  1  0
 12 13  2  0
 13 14  1  0
 14 15  2  0
 15 16  1  0
 16 17  2  0
 17 12  1  0
M  RAD  1   1   2
M  END

