
     RDKit          3D

 47 49  0  0  0  0  0  0  0  0999 V2000
   -4.0863    0.0305    0.0300 C   0  0  0  0  0  0  0  0  0  0  0  0
   -4.2311   -0.7581    1.5041 C   0  0  2  0  0  0  0  0  0  0  0  0
   -5.7537   -0.1059    1.7797 C   0  0  0  0  0  0  0  0  0  0  0  0
   -6.5384   -0.5819    0.6668 N   0  0  0  0  0  0  0  0  0  0  0  0
   -6.6398    0.0955   -0.4690 N   0  0  0  0  0  0  0  0  0  0  0  0
   -7.4415   -0.6162   -1.3036 C   0  0  0  0  0  0  0  0  0  0  0  0
   -7.7849   -1.7012   -0.6141 N   0  0  0  0  0  0  0  0  0  0  0  0
   -7.2394   -1.6978    0.5994 N   0  0  0  0  0  0  0  0  0  0  0  0
   -3.5044    0.3896    2.3069 N   0  0  0  0  0  0  0  0  0  0  0  0
   -2.1804    0.6986    1.9403 C   0  0  0  0  0  0  0  0  0  0  0  0
   -1.4349    1.6363    2.5178 N   0  0  0  0  0  0  0  0  0  0  0  0
   -0.1731    1.8967    2.1334 C   0  0  0  0  0  0  0  0  0  0  0  0
    0.3829    1.1582    1.0883 C   0  0  0  0  0  0  0  0  0  0  0  0
    1.6444    1.3576    0.6422 C   0  0  0  0  0  0  0  0  0  0  0  0
    2.1899    0.5885   -0.4288 C   0  0  0  0  0  0  0  0  0  0  0  0
    3.4431    0.8506   -0.8100 O   0  0  0  0  0  0  0  0  0  0  0  0
    4.6742    0.3224   -0.8880 C   0  0  0  0  0  0  0  0  0  0  0  0
    5.6821    0.9278   -0.0708 C   0  0  0  0  0  0  0  0  0  0  0  0
    6.9405    0.4747   -0.0784 C   0  0  0  0  0  0  0  0  0  0  0  0
    7.3583   -0.5846   -0.8540 C   0  0  0  0  0  0  0  0  0  0  0  0
    8.6463   -1.0150   -0.8308 F   0  0  0  0  0  0  0  0  0  0  0  0
    6.4239   -1.1925   -1.6525 C   0  0  0  0  0  0  0  0  0  0  0  0
    5.1013   -0.7228   -1.6507 C   0  0  0  0  0  0  0  0  0  0  0  0
    4.2809   -1.3976   -2.5217 F   0  0  0  0  0  0  0  0  0  0  0  0
    1.3486   -0.3490   -0.9583 C   0  0  0  0  0  0  0  0  0  0  0  0
    1.6407   -1.1171   -1.9035 O   0  0  0  0  0  0  0  0  0  0  0  0
    0.0718   -0.5483   -0.5033 N   0  0  0  0  0  0  0  0  0  0  0  0
   -0.7987   -1.5674   -1.1002 C   0  0  0  0  0  0  0  0  0  0  0  0
   -0.3886    0.1902    0.4931 C   0  0  0  0  0  0  0  0  0  0  0  0
   -1.6340   -0.0051    0.9358 N   0  0  0  0  0  0  0  0  0  0  0  0
    5.8775    1.7870    1.8217 N   0  0  0  0  0  0  0  0  0  0  0  0
    4.7015    1.4509    1.1314 C   0  0  0  0  0  0  0  0  0  0  0  0
    4.4774    1.9276   -0.0526 N   0  0  0  0  0  4  0  0  0  0  0  0
    3.7092    0.5877    1.6772 N   0  0  0  0  0  0  0  0  0  0  0  0
    2.4969    0.2390    0.9701 C   0  0  0  0  0  0  0  0  0  0  0  0
    2.8612   -0.4597   -0.3403 C   0  0  0  0  0  0  0  0  0  0  0  0
    1.5337   -0.7932   -1.0226 C   0  0  0  0  0  0  0  0  0  0  0  0
    0.8091    0.5267   -1.2531 C   0  0  0  0  0  0  0  0  0  0  0  0
   -0.4532    0.3080   -1.8927 N   0  0  0  0  0  0  0  0  0  0  0  0
   -1.4895   -0.5078   -1.2817 C   0  0  0  0  0  0  0  0  0  0  0  0
   -1.1704   -0.9871   -0.1654 O   0  0  0  0  0  0  0  0  0  0  0  0
   -2.7657   -0.7090   -1.9636 C   0  0  0  0  0  0  0  0  0  0  0  0
   -3.8284   -1.3811   -1.2246 C   0  0  0  0  0  0  0  0  0  0  0  0
   -4.4013   -0.7728   -0.0102 C   0  0  0  0  0  0  0  0  0  0  0  0
   -3.4211   -0.5661    1.0631 C   0  0  0  0  0  0  0  0  0  0  0  0
   -3.9526    0.0463    2.3110 C   0  0  0  0  0  0  0  0  0  0  0  0
   -4.9842   -0.6964    2.9580 N   0  0  0  0  0  4  0  0  0  0  0  0
  2  1  1  6
  2  3  1  0
  3  4  1  0
  4  5  1  0
  5  6  2  0
  6  7  1  0
  7  8  2  0
  2  9  1  0
  9 10  1  0
 10 11  2  0
 11 12  1  0
 12 13  2  0
 13 14  1  0
 14 15  2  0
 15 16  1  0
 16 17  1  0
 17 18  2  0
 18 19  1  0
 19 20  2  0
 20 21  1  0
 20 22  1  0
 22 23  2  0
 23 24  1  0
 15 25  1  0
 25 26  2  0
 25 27  1  0
 27 28  1  0
 27 29  1  0
 29 30  2  0
 31 32  1  0
 32 33  2  0
 32 34  1  0
 34 35  1  0
 35 36  1  0
 36 37  1  0
 37 38  1  0
 38 39  1  0
 39 40  1  0
 40 41  2  0
 40 42  1  0
 42 43  1  0
 43 44  1  0
 44 45  1  0
 45 46  1  0
 46 47  1  0
  8  4  1  0
 30 10  1  0
 29 13  1  0
 23 17  1  0
M  CHG  2  33   1  47   1
M  END

