
     RDKit          3D

  9  8  0  0  0  0  0  0  0  0999 V2000
    3.0940   -0.2239   -1.4933 C   0  0  0  0  0  0  0  0  0  0  0  0
    2.8850   -0.0571   -0.0155 C   0  0  0  0  0  0  0  0  0  0  0  0
    1.6728    0.6267    0.3208 N   0  0  0  0  0  0  0  0  0  0  0  0
    0.3958    0.1347   -0.0518 C   0  0  0  0  0  0  0  0  0  0  0  0
    0.3321   -0.9402   -0.7002 O   0  0  0  0  0  0  0  0  0  0  0  0
   -0.8606    0.8355    0.2921 C   0  0  0  0  0  0  0  0  0  0  0  0
   -2.0761    0.1203   -0.2106 C   0  0  0  0  0  0  0  0  0  0  0  0
   -3.3345    0.8405    0.1448 C   0  0  0  0  0  0  0  0  0  0  0  0
   -2.1085   -1.3364    0.1913 C   0  0  0  0  0  0  0  0  0  0  0  0
  1  2  1  0
  2  3  1  0
  3  4  1  0
  4  5  2  0
  4  6  1  0
  6  7  1  0
  7  8  1  0
  7  9  1  0
M  END

