
     RDKit          3D

 44 46  0  0  0  0  0  0  0  0999 V2000
    4.8825   -0.8138   -1.1549 C   0  0  0  0  0  0  0  0  0  0  0  0
    4.5593   -0.2555    0.1921 C   0  0  0  0  0  0  0  0  0  0  0  0
    4.9642    1.1969    0.3030 C   0  0  0  0  0  0  0  0  0  0  0  0
    3.1424   -0.4005    0.6105 C   0  0  0  0  0  0  0  0  0  0  0  0
    2.1537    0.2586   -0.2794 C   0  0  0  0  0  0  0  0  0  0  0  0
    0.7731    0.0689    0.2037 C   0  0  0  0  0  0  0  0  0  0  0  0
    0.5971   -0.5906    1.2529 O   0  0  0  0  0  0  0  0  0  0  0  0
   -0.3609    0.5888   -0.4502 N   0  0  0  0  0  0  0  0  0  0  0  0
   -1.7046    0.4248   -0.0122 C   0  0  0  0  0  0  0  0  0  0  0  0
   -2.1793   -0.9629    0.0844 C   0  0  0  0  0  0  0  0  0  0  0  0
   -3.5607   -1.1280    0.5349 C   0  0  0  0  0  0  0  0  0  0  0  0
   -4.6636   -0.6037   -0.2282 C   0  0  0  0  0  0  0  0  0  0  0  0
   -4.8152    0.8187   -0.5272 C   0  0  0  0  0  0  0  0  0  0  0  0
   -3.7881    1.3982   -1.3105 N   0  0  0  0  0  4  0  0  0  0  0  0
    3.1371   -1.8001   -1.1155 C   0  0  0  0  0  0  0  0  0  0  0  0
    4.2600   -0.6150   -0.8199 C   0  0  2  0  0  0  0  0  0  0  0  0
    5.4028   -1.7103   -0.3731 C   0  0  0  0  0  0  0  0  0  0  0  0
    6.5516   -0.8580   -0.0478 N   0  0  0  0  0  0  0  0  0  0  0  0
    7.4927   -0.4668   -0.8700 N   0  0  0  0  0  0  0  0  0  0  0  0
    8.3783    0.3013   -0.2254 C   0  0  0  0  0  0  0  0  0  0  0  0
    7.9346    0.3705    1.0617 N   0  0  0  0  0  0  0  0  0  0  0  0
    6.8284   -0.3448    1.1226 N   0  0  0  0  0  0  0  0  0  0  0  0
    3.7629   -0.3917    0.6497 N   0  0  0  0  0  0  0  0  0  0  0  0
    2.3982    0.0115    0.7586 C   0  0  0  0  0  0  0  0  0  0  0  0
    1.9233    0.2160    1.9982 N   0  0  0  0  0  0  0  0  0  0  0  0
    0.6543    0.5984    2.2401 C   0  0  0  0  0  0  0  0  0  0  0  0
   -0.1691    0.7800    1.1533 C   0  0  0  0  0  0  0  0  0  0  0  0
   -1.4918    1.1770    1.3768 C   0  0  0  0  0  0  0  0  0  0  0  0
   -2.3326    1.3642    0.2991 C   0  0  0  0  0  0  0  0  0  0  0  0
   -3.6246    1.7537    0.5491 O   0  0  0  0  0  0  0  0  0  0  0  0
   -4.7611    1.0722    0.2059 C   0  0  0  0  0  0  0  0  0  0  0  0
   -5.6397    1.7312   -0.6319 C   0  0  0  0  0  0  0  0  0  0  0  0
   -6.8227    1.1498   -1.0510 C   0  0  0  0  0  0  0  0  0  0  0  0
   -7.1165   -0.1236   -0.6100 C   0  0  0  0  0  0  0  0  0  0  0  0
   -8.2822   -0.6622   -1.0395 F   0  0  0  0  0  0  0  0  0  0  0  0
   -6.2462   -0.7853    0.2242 C   0  0  0  0  0  0  0  0  0  0  0  0
   -5.0634   -0.2045    0.6434 C   0  0  0  0  0  0  0  0  0  0  0  0
   -4.1841   -0.8235    1.4624 F   0  0  0  0  0  0  0  0  0  0  0  0
   -1.7916    1.1400   -0.9482 C   0  0  0  0  0  0  0  0  0  0  0  0
   -2.5417    1.3054   -1.9382 O   0  0  0  0  0  0  0  0  0  0  0  0
   -0.5336    0.7618   -1.1710 N   0  0  0  0  0  0  0  0  0  0  0  0
    0.0069    0.5332   -2.5040 C   0  0  0  0  0  0  0  0  0  0  0  0
    0.2945    0.5765   -0.1291 C   0  0  0  0  0  0  0  0  0  0  0  0
    1.5752    0.1960   -0.2704 N   0  0  0  0  0  0  0  0  0  0  0  0
  1  2  1  0
  2  3  1  0
  2  4  1  0
  4  5  1  0
  5  6  1  0
  6  7  2  0
  6  8  1  0
  8  9  1  0
  9 10  1  0
 10 11  1  0
 11 12  1  0
 12 13  1  0
 13 14  1  0
 16 15  1  6
 16 17  1  0
 17 18  1  0
 18 19  1  0
 19 20  2  0
 20 21  1  0
 21 22  2  0
 16 23  1  0
 23 24  1  0
 24 25  2  0
 25 26  1  0
 26 27  2  0
 27 28  1  0
 28 29  2  0
 29 30  1  0
 30 31  1  0
 31 32  2  0
 32 33  1  0
 33 34  2  0
 34 35  1  0
 34 36  1  0
 36 37  2  0
 37 38  1  0
 29 39  1  0
 39 40  2  0
 39 41  1  0
 41 42  1  0
 41 43  1  0
 43 44  2  0
 22 18  1  0
 44 24  1  0
 43 27  1  0
 37 31  1  0
M  CHG  1  14   1
M  END

