
     RDKit          3D

 43 45  0  0  0  0  0  0  0  0999 V2000
   -3.0565   -1.7475    1.3142 C   0  0  0  0  0  0  0  0  0  0  0  0
   -2.0333   -0.8958    0.6113 C   0  0  0  0  0  0  0  0  0  0  0  0
   -2.8738    0.1748   -0.2943 C   0  0  2  0  0  0  0  0  0  0  0  0
   -3.6130   -0.9839   -1.1667 C   0  0  0  0  0  0  0  0  0  0  0  0
   -1.6693    0.3777   -1.3564 C   0  0  0  0  0  0  0  0  0  0  0  0
   -0.5047    0.8911   -0.6176 C   0  0  0  0  0  0  0  0  0  0  0  0
   -0.6098    1.0776    0.6136 O   0  0  0  0  0  0  0  0  0  0  0  0
    0.7381    1.1919   -1.2058 N   0  0  0  0  0  0  0  0  0  0  0  0
    1.8862    1.6988   -0.4731 C   0  0  0  0  0  0  0  0  0  0  0  0
    2.3311    0.7403    0.6105 C   0  0  0  0  0  0  0  0  0  0  0  0
    2.6931   -0.5461   -0.0838 C   0  0  0  0  0  0  0  0  0  0  0  0
    3.1608   -1.6191    0.8528 C   0  0  0  0  0  0  0  0  0  0  0  0
    3.5511   -0.3599   -1.2840 C   0  0  0  0  0  0  0  0  0  0  0  0
   -3.8269   -1.5462    0.9925 C   0  0  0  0  0  0  0  0  0  0  0  0
   -4.2891   -0.0599    1.5358 C   0  0  2  0  0  0  0  0  0  0  0  0
   -5.8790   -0.3148    1.2278 C   0  0  0  0  0  0  0  0  0  0  0  0
   -6.0222   -0.5749   -0.1800 N   0  0  0  0  0  0  0  0  0  0  0  0
   -5.9906   -1.6679   -0.8775 N   0  0  0  0  0  0  0  0  0  0  0  0
   -6.1756   -1.3996   -2.1674 C   0  0  0  0  0  0  0  0  0  0  0  0
   -6.3261   -0.0705   -2.2432 N   0  0  0  0  0  0  0  0  0  0  0  0
   -6.2309    0.4095   -1.0389 N   0  0  0  0  0  0  0  0  0  0  0  0
   -3.9764    0.6569    0.1702 N   0  0  0  0  0  0  0  0  0  0  0  0
   -2.6072    0.5462   -0.2301 C   0  0  0  0  0  0  0  0  0  0  0  0
   -2.1954    1.1102   -1.3760 N   0  0  0  0  0  0  0  0  0  0  0  0
   -0.9295    1.0505   -1.8192 C   0  0  0  0  0  0  0  0  0  0  0  0
    0.0124    0.3707   -1.0582 C   0  0  0  0  0  0  0  0  0  0  0  0
    1.3230    0.2908   -1.4862 C   0  0  0  0  0  0  0  0  0  0  0  0
    2.2380   -0.3904   -0.7112 C   0  0  0  0  0  0  0  0  0  0  0  0
    3.5741   -0.4886   -1.1186 O   0  0  0  0  0  0  0  0  0  0  0  0
    4.5485    0.0404   -0.2758 C   0  0  0  0  0  0  0  0  0  0  0  0
    5.5566   -0.7412    0.2610 C   0  0  0  0  0  0  0  0  0  0  0  0
    6.5172   -0.2057    1.0953 C   0  0  0  0  0  0  0  0  0  0  0  0
    6.5099    1.1331    1.4276 C   0  0  0  0  0  0  0  0  0  0  0  0
    7.4478    1.6735    2.2466 F   0  0  0  0  0  0  0  0  0  0  0  0
    5.5006    1.9012    0.8865 C   0  0  0  0  0  0  0  0  0  0  0  0
    4.5309    1.3723    0.0472 C   0  0  0  0  0  0  0  0  0  0  0  0
    3.5366    2.1280   -0.4862 F   0  0  0  0  0  0  0  0  0  0  0  0
    1.8178   -0.9707    0.4664 C   0  0  0  0  0  0  0  0  0  0  0  0
    2.6841   -1.5836    1.1452 O   0  0  0  0  0  0  0  0  0  0  0  0
    0.5336   -0.8707    0.8484 N   0  0  0  0  0  0  0  0  0  0  0  0
    0.1816   -1.5116    2.1004 C   0  0  0  0  0  0  0  0  0  0  0  0
   -0.3891   -0.2158    0.1219 C   0  0  0  0  0  0  0  0  0  0  0  0
   -1.6748   -0.1106    0.4956 N   0  0  0  0  0  0  0  0  0  0  0  0
  1  2  1  0
  2  3  1  0
  3  4  1  6
  3  5  1  0
  5  6  1  0
  6  7  2  0
  6  8  1  0
  8  9  1  0
  9 10  1  0
 10 11  1  0
 11 12  1  0
 11 13  1  0
 15 14  1  6
 15 16  1  0
 16 17  1  0
 17 18  1  0
 18 19  2  0
 19 20  1  0
 20 21  2  0
 15 22  1  0
 22 23  1  0
 23 24  2  0
 24 25  1  0
 25 26  2  0
 26 27  1  0
 27 28  2  0
 28 29  1  0
 29 30  1  0
 30 31  2  0
 31 32  1  0
 32 33  2  0
 33 34  1  0
 33 35  1  0
 35 36  2  0
 36 37  1  0
 28 38  1  0
 38 39  2  0
 38 40  1  0
 40 41  1  0
 40 42  1  0
 42 43  2  0
 21 17  1  0
 43 23  1  0
 42 26  1  0
 36 30  1  0
M  END

