
     RDKit          3D

 12 11  0  0  0  0  0  0  0  0999 V2000
    4.0820    0.0295    1.0981 N   0  0  0  0  0  0  0  0  0  0  0  0
    3.4161   -0.0187   -0.1517 C   0  0  0  0  0  0  0  0  0  0  0  0
    4.0525    0.2856   -1.1948 O   0  0  0  0  0  0  0  0  0  0  0  0
    2.0005   -0.4262   -0.1662 C   0  0  0  0  0  0  0  0  0  0  0  0
    1.4216   -0.4321   -1.5647 C   0  0  0  0  0  0  0  0  0  0  0  0
   -0.0244   -0.8586   -1.4902 C   0  0  0  0  0  0  0  0  0  0  0  0
   -0.7974    0.0854   -0.6389 C   0  0  0  0  0  0  0  0  0  0  0  0
   -0.2091    1.0573   -0.1167 O   0  0  0  0  0  0  0  0  0  0  0  0
   -2.1726   -0.0833   -0.4039 N   0  0  0  0  0  0  0  0  0  0  0  0
   -2.9474    0.8367    0.4312 C   0  0  0  0  0  0  0  0  0  0  0  0
   -4.3755    0.3967    0.4920 C   0  0  0  0  0  0  0  0  0  0  0  0
   -4.4463   -0.8722    1.0319 O   0  0  0  0  0  0  0  0  0  0  0  0
  1  2  1  0
  2  3  2  0
  2  4  1  0
  4  5  1  0
  5  6  1  0
  6  7  1  0
  7  8  2  0
  7  9  1  0
  9 10  1  0
 10 11  1  0
 11 12  1  0
M  END

