
     RDKit          3D

 48 51  0  0  0  0  0  0  0  0999 V2000
    3.8630   -1.7458   -2.0223 C   0  0  0  0  0  0  0  0  0  0  0  0
    4.7338   -0.5502   -1.2725 C   0  0  2  0  0  0  0  0  0  0  0  0
    4.0020   -0.7995    0.1900 C   0  0  0  0  0  0  0  0  0  0  0  0
    4.7013    0.2282    0.9793 N   0  0  0  0  0  0  0  0  0  0  0  0
    4.3859    1.4747    1.1828 N   0  0  0  0  0  0  0  0  0  0  0  0
    5.3069    2.0644    1.9725 C   0  0  0  0  0  0  0  0  0  0  0  0
    6.2142    1.1136    2.2492 N   0  0  0  0  0  0  0  0  0  0  0  0
    5.8296    0.0057    1.6375 N   0  0  0  0  0  0  0  0  0  0  0  0
    3.7728    0.5874   -1.7726 N   0  0  0  0  0  0  0  0  0  0  0  0
    2.4068    0.5106   -1.4613 C   0  0  0  0  0  0  0  0  0  0  0  0
    1.4980    1.4252   -1.8330 N   0  0  0  0  0  0  0  0  0  0  0  0
    0.1966    1.3012   -1.5116 C   0  0  0  0  0  0  0  0  0  0  0  0
   -0.2703    0.2268   -0.7830 C   0  0  0  0  0  0  0  0  0  0  0  0
   -1.5945    0.0613   -0.4325 C   0  0  0  0  0  0  0  0  0  0  0  0
   -1.9704   -1.0479    0.2994 C   0  0  0  0  0  0  0  0  0  0  0  0
   -3.3094   -1.2613    0.6812 O   0  0  0  0  0  0  0  0  0  0  0  0
   -4.2467   -0.3235    0.3012 C   0  0  0  0  0  0  0  0  0  0  0  0
   -5.2889   -0.7157   -0.4873 C   0  0  0  0  0  0  0  0  0  0  0  0
   -6.2744    0.1527   -0.9167 C   0  0  0  0  0  0  0  0  0  0  0  0
   -6.1620    1.4728   -0.5058 C   0  0  0  0  0  0  0  0  0  0  0  0
   -7.0914    2.3637   -0.8925 F   0  0  0  0  0  0  0  0  0  0  0  0
   -5.1033    1.8734    0.2957 C   0  0  0  0  0  0  0  0  0  0  0  0
   -4.1363    0.9875    0.7085 C   0  0  0  0  0  0  0  0  0  0  0  0
   -3.1225    1.3868    1.4800 F   0  0  0  0  0  0  0  0  0  0  0  0
   -1.0337   -1.9863    0.6800 C   0  0  0  0  0  0  0  0  0  0  0  0
   -1.4062   -2.9868    1.3465 O   0  0  0  0  0  0  0  0  0  0  0  0
    0.2467   -1.7848    0.3164 N   0  0  0  0  0  0  0  0  0  0  0  0
    1.2390   -2.7785    0.7193 C   0  0  0  0  0  0  0  0  0  0  0  0
    0.6650   -0.7211   -0.3965 C   0  0  0  0  0  0  0  0  0  0  0  0
    1.9482   -0.5344   -0.7518 N   0  0  0  0  0  0  0  0  0  0  0  0
    4.9536   -0.0683    3.1867 N   0  0  0  0  0  0  0  0  0  0  0  0
    4.1421   -0.3223    2.0475 C   0  0  0  0  0  0  0  0  0  0  0  0
    4.6353   -0.6079    0.8968 N   0  0  0  0  0  4  0  0  0  0  0  0
    2.7327   -0.2557    2.1962 N   0  0  0  0  0  0  0  0  0  0  0  0
    1.8980   -0.5138    1.0379 C   0  0  0  0  0  0  0  0  0  0  0  0
    2.2105    0.5001   -0.0780 C   0  0  0  0  0  0  0  0  0  0  0  0
    1.9718    1.8906    0.3385 C   0  0  0  0  0  0  0  0  0  0  0  0
    0.6430    2.3465    0.7025 C   0  0  0  0  0  0  0  0  0  0  0  0
   -0.4065    2.3797   -0.2164 N   0  0  0  0  0  0  0  0  0  0  0  0
   -0.9605    1.3270   -0.9257 C   0  0  0  0  0  0  0  0  0  0  0  0
   -0.5246    0.1681   -0.7830 O   0  0  0  0  0  0  0  0  0  0  0  0
   -2.1097    1.5379   -1.8965 C   0  0  0  0  0  0  0  0  0  0  0  0
   -2.5202    0.2463   -2.5291 C   0  0  0  0  0  0  0  0  0  0  0  0
   -2.9699   -0.7569   -1.5249 C   0  0  0  0  0  0  0  0  0  0  0  0
   -3.3967   -2.0205   -1.8554 C   0  0  0  0  0  0  0  0  0  0  0  0
   -3.7279   -2.6633   -0.7215 N   0  0  0  0  0  0  0  0  0  0  0  0
   -3.5162   -1.8233    0.3206 C   0  0  0  0  0  0  0  0  0  0  0  0
   -3.0547   -0.6692   -0.1961 N   0  0  0  0  0  0  0  0  0  0  0  0
  2  1  1  6
  2  3  1  0
  3  4  1  0
  4  5  1  0
  5  6  2  0
  6  7  1  0
  7  8  2  0
  2  9  1  0
  9 10  1  0
 10 11  2  0
 11 12  1  0
 12 13  2  0
 13 14  1  0
 14 15  2  0
 15 16  1  0
 16 17  1  0
 17 18  2  0
 18 19  1  0
 19 20  2  0
 20 21  1  0
 20 22  1  0
 22 23  2  0
 23 24  1  0
 15 25  1  0
 25 26  2  0
 25 27  1  0
 27 28  1  0
 27 29  1  0
 29 30  2  0
 31 32  1  0
 32 33  2  0
 32 34  1  0
 34 35  1  0
 35 36  1  0
 36 37  1  0
 37 38  1  0
 38 39  1  0
 39 40  1  0
 40 41  2  0
 40 42  1  0
 42 43  1  0
 43 44  1  0
 44 45  2  0
 45 46  1  0
 46 47  1  0
 47 48  2  0
  8  4  1  0
 30 10  1  0
 48 44  1  0
 29 13  1  0
 23 17  1  0
M  CHG  1  33   1
M  END

