
     RDKit          3D

 42 44  0  0  0  0  0  0  0  0999 V2000
    5.1934    0.5052    0.9451 C   0  0  0  0  0  0  0  0  0  0  0  0
    4.1924   -0.3204    0.2948 N   0  0  0  0  0  0  0  0  0  0  0  0
    2.8114   -0.1514    0.4804 C   0  0  0  0  0  0  0  0  0  0  0  0
    2.4115    0.7597    1.2480 O   0  0  0  0  0  0  0  0  0  0  0  0
    1.7953   -0.9972   -0.1862 C   0  0  0  0  0  0  0  0  0  0  0  0
    0.4015   -0.5858    0.2006 C   0  0  0  0  0  0  0  0  0  0  0  0
   -0.5979   -1.4764   -0.5036 C   0  0  0  0  0  0  0  0  0  0  0  0
   -2.0097   -1.1255   -0.1662 C   0  0  0  0  0  0  0  0  0  0  0  0
   -2.2945    0.2625   -0.5606 N   0  0  0  0  0  0  0  0  0  0  0  0
   -3.5738    0.8406   -0.3462 C   0  0  0  0  0  0  0  0  0  0  0  0
   -3.8630    2.1999   -0.7292 N   0  0  0  0  0  0  0  0  0  0  0  0
   -4.4667    0.0886    0.2092 N   0  0  0  0  0  4  0  0  0  0  0  0
   -3.2919   -1.8501    1.9181 C   0  0  0  0  0  0  0  0  0  0  0  0
   -4.0719   -0.3941    1.6624 C   0  0  2  0  0  0  0  0  0  0  0  0
   -5.4728   -1.1532    1.1851 C   0  0  0  0  0  0  0  0  0  0  0  0
   -6.3756   -0.0659    0.8859 N   0  0  0  0  0  0  0  0  0  0  0  0
   -6.5517    0.5567   -0.2801 N   0  0  0  0  0  0  0  0  0  0  0  0
   -7.5009    1.5001   -0.0560 C   0  0  0  0  0  0  0  0  0  0  0  0
   -7.8787    1.4333    1.2264 N   0  0  0  0  0  0  0  0  0  0  0  0
   -7.1804    0.4724    1.7814 N   0  0  0  0  0  0  0  0  0  0  0  0
   -3.5300   -0.2800    0.1800 N   0  0  0  0  0  0  0  0  0  0  0  0
   -2.1250   -0.2492    0.0523 C   0  0  0  0  0  0  0  0  0  0  0  0
   -1.3610   -0.3153    1.1454 N   0  0  0  0  0  0  0  0  0  0  0  0
   -0.0225   -0.2934    1.1284 C   0  0  0  0  0  0  0  0  0  0  0  0
    0.5825   -0.1957   -0.1101 C   0  0  0  0  0  0  0  0  0  0  0  0
    1.9600   -0.1678   -0.2033 C   0  0  0  0  0  0  0  0  0  0  0  0
    2.5514   -0.0695   -1.4531 C   0  0  0  0  0  0  0  0  0  0  0  0
    3.9451   -0.0406   -1.5568 O   0  0  0  0  0  0  0  0  0  0  0  0
    4.7304   -0.1083   -0.4367 C   0  0  0  0  0  0  0  0  0  0  0  0
    5.6242   -1.1516   -0.3087 C   0  0  0  0  0  0  0  0  0  0  0  0
    6.4248   -1.2512    0.7970 C   0  0  0  0  0  0  0  0  0  0  0  0
    6.3208   -0.2996    1.7678 C   0  0  0  0  0  0  0  0  0  0  0  0
    7.1202   -0.4135    2.8547 F   0  0  0  0  0  0  0  0  0  0  0  0
    5.4365    0.7614    1.6754 C   0  0  0  0  0  0  0  0  0  0  0  0
    4.6454    0.8374    0.5561 C   0  0  0  0  0  0  0  0  0  0  0  0
    3.7525    1.8479    0.3907 F   0  0  0  0  0  0  0  0  0  0  0  0
    1.7310   -0.0038   -2.5525 C   0  0  0  0  0  0  0  0  0  0  0  0
    2.2947    0.0862   -3.6914 O   0  0  0  0  0  0  0  0  0  0  0  0
    0.3819   -0.0305   -2.4699 N   0  0  0  0  0  0  0  0  0  0  0  0
   -0.4475    0.0430   -3.6804 C   0  0  0  0  0  0  0  0  0  0  0  0
   -0.1755   -0.1259   -1.2528 C   0  0  0  0  0  0  0  0  0  0  0  0
   -1.5161   -0.1536   -1.1554 N   0  0  0  0  0  0  0  0  0  0  0  0
  1  2  1  0
  2  3  1  0
  3  4  2  0
  3  5  1  0
  5  6  1  0
  6  7  1  0
  7  8  1  0
  8  9  1  0
  9 10  1  0
 10 11  1  0
 10 12  2  0
 14 13  1  1
 14 15  1  0
 15 16  1  0
 16 17  1  0
 17 18  2  0
 18 19  1  0
 19 20  2  0
 14 21  1  0
 21 22  1  0
 22 23  2  0
 23 24  1  0
 24 25  2  0
 25 26  1  0
 26 27  2  0
 27 28  1  0
 28 29  1  0
 29 30  2  0
 30 31  1  0
 31 32  2  0
 32 33  1  0
 32 34  1  0
 34 35  2  0
 35 36  1  0
 27 37  1  0
 37 38  2  0
 37 39  1  0
 39 40  1  0
 39 41  1  0
 41 42  2  0
 20 16  1  0
 42 22  1  0
 41 25  1  0
 35 29  1  0
M  CHG  1  12   1
M  END

