
     RDKit          3D

 40 42  0  0  0  0  0  0  0  0999 V2000
   -3.9798    0.3583   -0.6599 C   0  0  0  0  0  0  0  0  0  0  0  0
   -3.0970   -0.4937    0.1949 C   0  0  0  0  0  0  0  0  0  0  0  0
   -1.6624   -0.3649   -0.1436 C   0  0  0  0  0  0  0  0  0  0  0  0
   -1.2991    0.3947   -1.0593 O   0  0  0  0  0  0  0  0  0  0  0  0
   -0.7207   -1.1210    0.5939 N   0  0  0  0  0  0  0  0  0  0  0  0
    0.6897   -1.0205    0.2910 C   0  0  0  0  0  0  0  0  0  0  0  0
    1.1306    0.4190    0.4845 C   0  0  0  0  0  0  0  0  0  0  0  0
    2.5673    0.5944    0.1909 C   0  0  0  0  0  0  0  0  0  0  0  0
    3.3060   -0.5034   -0.2032 O   0  0  0  0  0  1  0  0  0  0  0  0
    3.0654    1.7372    0.3106 O   0  0  0  0  0  0  0  0  0  0  0  0
    3.2024   -1.4077    1.0991 C   0  0  0  0  0  0  0  0  0  0  0  0
    4.1711   -0.5513    0.0679 C   0  0  2  0  0  0  0  0  0  0  0  0
    5.4547   -0.5863    1.1262 C   0  0  0  0  0  0  0  0  0  0  0  0
    6.4988    0.1362    0.4305 N   0  0  0  0  0  0  0  0  0  0  0  0
    7.3919   -0.3939   -0.3799 N   0  0  0  0  0  0  0  0  0  0  0  0
    8.1839    0.5736   -0.8289 C   0  0  0  0  0  0  0  0  0  0  0  0
    7.7564    1.7006   -0.2772 N   0  0  0  0  0  0  0  0  0  0  0  0
    6.7255    1.4123    0.4894 N   0  0  0  0  0  0  0  0  0  0  0  0
    3.6610    0.8423    0.5931 N   0  0  0  0  0  0  0  0  0  0  0  0
    2.2714    0.9994    0.4100 C   0  0  0  0  0  0  0  0  0  0  0  0
    1.7013    2.1605    0.8211 N   0  0  0  0  0  0  0  0  0  0  0  0
    0.3984    2.3909    0.6863 C   0  0  0  0  0  0  0  0  0  0  0  0
   -0.4078    1.4371    0.1167 C   0  0  0  0  0  0  0  0  0  0  0  0
   -1.7651    1.6588   -0.0319 C   0  0  0  0  0  0  0  0  0  0  0  0
   -2.5162    0.6654   -0.6090 C   0  0  0  0  0  0  0  0  0  0  0  0
   -3.8713    0.8335   -0.7809 O   0  0  0  0  0  0  0  0  0  0  0  0
   -4.7616   -0.0351   -0.1840 C   0  0  0  0  0  0  0  0  0  0  0  0
   -5.6302   -0.7707   -0.9609 C   0  0  0  0  0  0  0  0  0  0  0  0
   -6.5421   -1.6566   -0.3938 C   0  0  0  0  0  0  0  0  0  0  0  0
   -6.5703   -1.7951    0.9757 C   0  0  0  0  0  0  0  0  0  0  0  0
   -7.4478   -2.6500    1.5509 F   0  0  0  0  0  0  0  0  0  0  0  0
   -5.7119   -1.0672    1.7323 C   0  0  0  0  0  0  0  0  0  0  0  0
   -4.7917   -0.1745    1.1753 C   0  0  0  0  0  0  0  0  0  0  0  0
   -3.9901    0.4951    2.0067 F   0  0  0  0  0  0  0  0  0  0  0  0
   -1.9263   -0.5155   -1.0252 C   0  0  0  0  0  0  0  0  0  0  0  0
   -2.6211   -1.4103   -1.5484 O   0  0  0  0  0  0  0  0  0  0  0  0
   -0.5899   -0.6783   -0.8544 N   0  0  0  0  0  0  0  0  0  0  0  0
    0.0207   -1.9249   -1.2960 C   0  0  0  0  0  0  0  0  0  0  0  0
    0.1910    0.2597   -0.2964 C   0  0  0  0  0  0  0  0  0  0  0  0
    1.5144    0.0521   -0.1477 N   0  0  0  0  0  0  0  0  0  0  0  0
  1  2  1  0
  2  3  1  0
  3  4  2  0
  3  5  1  0
  5  6  1  0
  6  7  1  0
  7  8  1  0
  8  9  1  0
  8 10  2  0
 12 11  1  1
 12 13  1  0
 13 14  1  0
 14 15  1  0
 15 16  2  0
 16 17  1  0
 17 18  2  0
 12 19  1  0
 19 20  1  0
 20 21  2  0
 21 22  1  0
 22 23  2  0
 23 24  1  0
 24 25  2  0
 25 26  1  0
 26 27  1  0
 27 28  2  0
 28 29  1  0
 29 30  2  0
 30 31  1  0
 30 32  1  0
 32 33  2  0
 33 34  1  0
 25 35  1  0
 35 36  2  0
 35 37  1  0
 37 38  1  0
 37 39  1  0
 39 40  2  0
 18 14  1  0
 40 20  1  0
 39 23  1  0
 33 27  1  0
M  RAD  1   9   2
M  END

