
     RDKit          3D

 45 47  0  0  0  0  0  0  0  0999 V2000
   -4.5399    2.1297    1.8338 C   0  0  0  0  0  0  0  0  0  0  0  0
   -3.4767    1.2602    1.2496 C   0  0  0  0  0  0  0  0  0  0  0  0
   -3.4384    1.2629   -0.2425 C   0  0  0  0  0  0  0  0  0  0  0  0
   -3.3756   -0.0956    1.8655 C   0  0  0  0  0  0  0  0  0  0  0  0
   -2.3165   -0.8211    1.2094 N   0  0  0  0  0  0  0  0  0  0  0  0
   -0.9747   -0.3822    1.1944 C   0  0  0  0  0  0  0  0  0  0  0  0
   -0.7130    0.6965    1.7884 O   0  0  0  0  0  0  0  0  0  0  0  0
    0.1118   -1.1522    0.5059 C   0  0  0  0  0  0  0  0  0  0  0  0
    1.4218   -0.4500    0.6562 C   0  0  0  0  0  0  0  0  0  0  0  0
    2.4909   -1.2586   -0.0519 C   0  0  0  0  0  0  0  0  0  0  0  0
    2.1209   -1.3714   -1.5167 C   0  0  0  0  0  0  0  0  0  0  0  0
    2.0335   -0.0545   -2.1180 N   0  0  0  0  0  0  0  0  0  0  0  0
    3.2004    0.7802   -2.1126 C   0  0  0  0  0  0  0  0  0  0  0  0
    3.1854    2.0801   -2.6835 N   0  0  0  0  0  0  0  0  0  0  0  0
    4.2699    0.3295   -1.5782 N   0  0  0  0  0  4  0  0  0  0  0  0
   -3.8408   -0.1105   -0.0099 C   0  0  0  0  0  0  0  0  0  0  0  0
   -3.8512    0.6849   -1.4678 C   0  0  2  0  0  0  0  0  0  0  0  0
   -5.3753    0.2090   -1.8934 C   0  0  0  0  0  0  0  0  0  0  0  0
   -6.2865    0.6800   -0.9181 N   0  0  0  0  0  0  0  0  0  0  0  0
   -6.7509    0.1682    0.1993 N   0  0  0  0  0  0  0  0  0  0  0  0
   -7.6081    1.0312    0.7702 C   0  0  0  0  0  0  0  0  0  0  0  0
   -7.6724    2.1134   -0.0266 N   0  0  0  0  0  0  0  0  0  0  0  0
   -6.8735    1.8725   -1.0235 N   0  0  0  0  0  0  0  0  0  0  0  0
   -3.1743   -0.4994   -2.2275 N   0  0  0  0  0  0  0  0  0  0  0  0
   -1.8940   -0.8511   -1.7351 C   0  0  0  0  0  0  0  0  0  0  0  0
   -1.1880   -1.8721   -2.3087 N   0  0  0  0  0  0  0  0  0  0  0  0
    0.0281   -2.2082   -1.8430 C   0  0  0  0  0  0  0  0  0  0  0  0
    0.5715   -1.5246   -0.7831 C   0  0  0  0  0  0  0  0  0  0  0  0
    1.8182   -1.8574   -0.2937 C   0  0  0  0  0  0  0  0  0  0  0  0
    2.2815   -1.1111    0.7772 C   0  0  0  0  0  0  0  0  0  0  0  0
    3.5439   -1.4526    1.2681 O   0  0  0  0  0  0  0  0  0  0  0  0
    4.5068   -0.4520    1.2274 C   0  0  0  0  0  0  0  0  0  0  0  0
    5.1324    0.0212    2.3626 C   0  0  0  0  0  0  0  0  0  0  0  0
    6.0790    1.0176    2.2402 C   0  0  0  0  0  0  0  0  0  0  0  0
    6.4333    1.5688    1.0250 C   0  0  0  0  0  0  0  0  0  0  0  0
    7.3780    2.5554    0.9529 F   0  0  0  0  0  0  0  0  0  0  0  0
    5.7996    1.0858   -0.1008 C   0  0  0  0  0  0  0  0  0  0  0  0
    4.8431    0.0825   -0.0002 C   0  0  0  0  0  0  0  0  0  0  0  0
    4.2113   -0.3999   -1.1166 F   0  0  0  0  0  0  0  0  0  0  0  0
    1.5563   -0.1024    1.3253 C   0  0  0  0  0  0  0  0  0  0  0  0
    1.9946    0.5727    2.3067 O   0  0  0  0  0  0  0  0  0  0  0  0
    0.3319    0.2083    0.8282 N   0  0  0  0  0  0  0  0  0  0  0  0
   -0.4818    1.2764    1.3781 C   0  0  0  0  0  0  0  0  0  0  0  0
   -0.1474   -0.4977   -0.2121 C   0  0  0  0  0  0  0  0  0  0  0  0
   -1.3651   -0.1833   -0.7010 N   0  0  0  0  0  0  0  0  0  0  0  0
  1  2  1  0
  2  3  1  0
  2  4  1  0
  4  5  1  0
  5  6  1  0
  6  7  2  0
  6  8  1  0
  8  9  1  0
  9 10  1  0
 10 11  1  0
 11 12  1  0
 12 13  1  0
 13 14  1  0
 13 15  2  0
 17 16  1  1
 17 18  1  0
 18 19  1  0
 19 20  1  0
 20 21  2  0
 21 22  1  0
 22 23  2  0
 17 24  1  0
 24 25  1  0
 25 26  2  0
 26 27  1  0
 27 28  2  0
 28 29  1  0
 29 30  2  0
 30 31  1  0
 31 32  1  0
 32 33  2  0
 33 34  1  0
 34 35  2  0
 35 36  1  0
 35 37  1  0
 37 38  2  0
 38 39  1  0
 30 40  1  0
 40 41  2  0
 40 42  1  0
 42 43  1  0
 42 44  1  0
 44 45  2  0
 23 19  1  0
 45 25  1  0
 44 28  1  0
 38 32  1  0
M  CHG  1  15   1
M  END

