
     RDKit          3D

 19 20  0  0  0  0  0  0  0  0999 V2000
   -1.2542    0.8285    0.1230 O   0  0  0  0  0  0  0  0  0  0  0  0
   -0.8310   -0.2155   -0.4215 C   0  0  0  0  0  0  0  0  0  0  0  0
   -1.3418   -1.5233    0.0256 C   0  0  0  0  0  0  0  0  0  0  0  0
   -2.3820   -1.3902    1.0907 C   0  0  0  0  0  0  0  0  0  0  0  0
   -3.5375   -0.6249    0.5692 C   0  0  0  0  0  0  0  0  0  0  0  0
   -4.5918   -1.2673   -0.0609 C   0  0  0  0  0  0  0  0  0  0  0  0
   -5.4972   -0.3676   -0.4267 N   0  0  0  0  0  0  0  0  0  0  0  0
   -5.0414    0.8210   -0.0443 C   0  0  0  0  0  0  0  0  0  0  0  0
   -3.8456    0.6611    0.5630 N   0  0  0  0  0  0  0  0  0  0  0  0
    0.1312   -0.1276   -1.4578 N   0  0  0  0  0  0  0  0  0  0  0  0
    0.5948    1.1894   -1.8530 C   0  0  0  0  0  0  0  0  0  0  0  0
    1.2260    1.8260   -0.6234 C   0  0  0  0  0  0  0  0  0  0  0  0
    2.3703    1.0113   -0.1281 C   0  0  0  0  0  0  0  0  0  0  0  0
    3.6517    1.2372   -0.5890 C   0  0  0  0  0  0  0  0  0  0  0  0
    4.7335    0.4805   -0.1328 C   0  0  0  0  0  0  0  0  0  0  0  0
    4.5344   -0.5175    0.7979 C   0  0  0  0  0  0  0  0  0  0  0  0
    5.6031   -1.2640    1.2477 O   0  0  0  0  0  0  0  0  0  0  0  0
    3.2604   -0.7605    1.2726 C   0  0  0  0  0  0  0  0  0  0  0  0
    2.2170    0.0035    0.8021 C   0  0  0  0  0  0  0  0  0  0  0  0
  1  2  2  0
  2  3  1  0
  3  4  1  0
  4  5  1  0
  5  6  2  0
  6  7  1  0
  7  8  1  0
  8  9  2  0
  2 10  1  0
 10 11  1  0
 11 12  1  0
 12 13  1  0
 13 14  2  0
 14 15  1  0
 15 16  2  0
 16 17  1  0
 16 18  1  0
 18 19  2  0
  9  5  1  0
 19 13  1  0
M  END

