
     RDKit          3D

 14 14  0  0  0  0  0  0  0  0999 V2000
    4.0412    1.5343   -1.1918 C   0  0  0  0  0  0  0  0  0  0  0  0
    2.4602    1.0717   -0.8148 C   0  0  1  0  0  0  0  0  0  0  0  0
    2.7723   -0.4055   -1.1055 O   0  0  0  0  0  0  0  0  0  0  0  0
    2.8343    0.9118    0.8060 C   0  0  0  0  0  0  0  0  0  0  0  0
    1.9071   -0.0902    1.2813 N   0  0  0  0  0  0  0  0  0  0  0  0
    0.4796    0.0874    1.2111 C   0  0  0  0  0  0  0  0  0  0  0  0
    0.0736    1.1535    0.7176 O   0  0  0  0  0  0  0  0  0  0  0  0
   -0.3195   -1.0188    1.7338 C   0  0  0  0  0  0  0  0  0  0  0  0
   -1.7753   -0.7621    1.5868 C   0  0  0  0  0  0  0  0  0  0  0  0
   -2.1777   -0.5944    0.1589 C   0  0  0  0  0  0  0  0  0  0  0  0
   -2.2429    0.5444   -0.5757 C   0  0  0  0  0  0  0  0  0  0  0  0
   -2.6510    0.2351   -1.8068 N   0  0  0  0  0  0  0  0  0  0  0  0
   -2.8403   -1.0701   -1.8518 C   0  0  0  0  0  0  0  0  0  0  0  0
   -2.5617   -1.5972   -0.6770 N   0  0  0  0  0  0  0  0  0  0  0  0
  2  1  1  6
  2  3  1  0
  2  4  1  0
  4  5  1  0
  5  6  1  0
  6  7  2  0
  6  8  1  0
  8  9  1  0
  9 10  1  0
 10 11  2  0
 11 12  1  0
 12 13  1  0
 13 14  2  0
 14 10  1  0
M  END

