
     RDKit          3D

 47 50  0  0  0  0  0  0  0  0999 V2000
    5.7341   -0.5195    1.6645 C   0  0  0  0  0  0  0  0  0  0  0  0
    4.5029   -0.6617    0.5668 C   0  0  2  0  0  0  0  0  0  0  0  0
    4.6985    0.8706   -0.0199 C   0  0  0  0  0  0  0  0  0  0  0  0
    6.0360    0.9332   -0.5326 N   0  0  0  0  0  0  0  0  0  0  0  0
    7.0886    1.2952    0.1836 N   0  0  0  0  0  0  0  0  0  0  0  0
    8.1912    1.2613   -0.5451 C   0  0  0  0  0  0  0  0  0  0  0  0
    7.7677    0.8520   -1.7772 N   0  0  0  0  0  0  0  0  0  0  0  0
    6.4590    0.6626   -1.7342 N   0  0  0  0  0  0  0  0  0  0  0  0
    3.4211   -0.3026    1.6313 N   0  0  0  0  0  0  0  0  0  0  0  0
    2.0778   -0.2565    1.2778 C   0  0  0  0  0  0  0  0  0  0  0  0
    1.2357    0.0602    2.2620 N   0  0  0  0  0  0  0  0  0  0  0  0
   -0.0957    0.1309    2.0164 C   0  0  0  0  0  0  0  0  0  0  0  0
   -0.6096   -0.1188    0.7607 C   0  0  0  0  0  0  0  0  0  0  0  0
   -1.9387   -0.0627    0.4544 C   0  0  0  0  0  0  0  0  0  0  0  0
   -2.3788   -0.3253   -0.8254 C   0  0  0  0  0  0  0  0  0  0  0  0
   -3.6837   -0.2894   -1.2060 O   0  0  0  0  0  0  0  0  0  0  0  0
   -4.7787   -0.0042   -0.4567 C   0  0  0  0  0  0  0  0  0  0  0  0
   -5.6126    1.0545   -0.7601 C   0  0  0  0  0  0  0  0  0  0  0  0
   -6.7348    1.3374    0.0173 C   0  0  0  0  0  0  0  0  0  0  0  0
   -7.0482    0.5792    1.1043 C   0  0  0  0  0  0  0  0  0  0  0  0
   -8.1254    0.8168    1.8859 F   0  0  0  0  0  0  0  0  0  0  0  0
   -6.2201   -0.4930    1.4272 C   0  0  0  0  0  0  0  0  0  0  0  0
   -5.0936   -0.7741    0.6437 C   0  0  0  0  0  0  0  0  0  0  0  0
   -4.2746   -1.8077    0.9353 F   0  0  0  0  0  0  0  0  0  0  0  0
   -1.4286   -0.6443   -1.7751 C   0  0  0  0  0  0  0  0  0  0  0  0
   -1.7766   -0.8952   -2.9685 O   0  0  0  0  0  0  0  0  0  0  0  0
   -0.1154   -0.7094   -1.5132 N   0  0  0  0  0  0  0  0  0  0  0  0
    0.8701   -1.0502   -2.5406 C   0  0  0  0  0  0  0  0  0  0  0  0
    0.2679   -0.4454   -0.2507 C   0  0  0  0  0  0  0  0  0  0  0  0
    1.5646   -0.4938    0.0742 N   0  0  0  0  0  0  0  0  0  0  0  0
    6.3902   -0.7472   -0.8570 N   0  0  0  0  0  0  0  0  0  0  0  0
    5.5345   -0.4621    0.2357 C   0  0  0  0  0  0  0  0  0  0  0  0
    6.0326   -0.0025    1.2910 O   0  0  0  0  0  0  0  0  0  0  0  0
    4.0715   -0.6970    0.1515 C   0  0  0  0  0  0  0  0  0  0  0  0
    3.4213   -0.3060    1.4531 C   0  0  0  0  0  0  0  0  0  0  0  0
    1.9932   -0.5301    1.3847 N   0  0  0  0  0  0  0  0  0  0  0  0
    1.1696    0.1128    0.4361 C   0  0  0  0  0  0  0  0  0  0  0  0
    1.6565    0.9089   -0.3879 O   0  0  0  0  0  0  0  0  0  0  0  0
   -0.2717   -0.1625    0.4250 C   0  0  0  0  0  0  0  0  0  0  0  0
   -0.9392    0.6375   -0.6723 C   0  0  0  0  0  0  0  0  0  0  0  0
   -2.3865    0.3107   -0.6243 C   0  0  0  0  0  0  0  0  0  0  0  0
   -3.1974    1.0833    0.1735 C   0  0  0  0  0  0  0  0  0  0  0  0
   -4.5495    0.8539    0.2795 C   0  0  0  0  0  0  0  0  0  0  0  0
   -5.1384   -0.1716   -0.4210 C   0  0  0  0  0  0  0  0  0  0  0  0
   -6.5055   -0.4013   -0.3120 O   0  0  0  0  0  0  0  0  0  0  0  0
   -4.3206   -0.9415   -1.2182 C   0  0  0  0  0  0  0  0  0  0  0  0
   -2.9605   -0.7262   -1.3373 C   0  0  0  0  0  0  0  0  0  0  0  0
  2  1  1  1
  2  3  1  0
  3  4  1  0
  4  5  1  0
  5  6  2  0
  6  7  1  0
  7  8  2  0
  2  9  1  0
  9 10  1  0
 10 11  2  0
 11 12  1  0
 12 13  2  0
 13 14  1  0
 14 15  2  0
 15 16  1  0
 16 17  1  0
 17 18  2  0
 18 19  1  0
 19 20  2  0
 20 21  1  0
 20 22  1  0
 22 23  2  0
 23 24  1  0
 15 25  1  0
 25 26  2  0
 25 27  1  0
 27 28  1  0
 27 29  1  0
 29 30  2  0
 31 32  1  0
 32 33  2  0
 32 34  1  0
 34 35  1  0
 35 36  1  0
 36 37  1  0
 37 38  2  0
 37 39  1  0
 39 40  1  0
 40 41  1  0
 41 42  2  0
 42 43  1  0
 43 44  2  0
 44 45  1  0
 44 46  1  0
 46 47  2  0
  8  4  1  0
 30 10  1  0
 47 41  1  0
 29 13  1  0
 23 17  1  0
M  END

