
     RDKit          3D

 46 48  0  0  0  0  0  0  0  0999 V2000
    5.6930   -0.0787   -3.8118 C   0  0  0  0  0  0  0  0  0  0  0  0
    4.9068    0.7395   -2.5505 C   0  0  2  0  0  0  0  0  0  0  0  0
    5.9039    0.0046   -1.4492 C   0  0  0  0  0  0  0  0  0  0  0  0
    5.5133    0.4904   -0.1546 N   0  0  0  0  0  0  0  0  0  0  0  0
    5.9877    1.5954    0.4462 N   0  0  0  0  0  0  0  0  0  0  0  0
    5.4326    1.7476    1.6605 C   0  0  0  0  0  0  0  0  0  0  0  0
    4.5929    0.6976    1.7989 N   0  0  0  0  0  0  0  0  0  0  0  0
    4.6618   -0.0262    0.7131 N   0  0  0  0  0  0  0  0  0  0  0  0
    3.7966   -0.3815   -2.4497 N   0  0  0  0  0  0  0  0  0  0  0  0
    2.6648    0.0127   -1.6997 C   0  0  0  0  0  0  0  0  0  0  0  0
    2.4633    1.1870   -1.1202 N   0  0  0  0  0  0  0  0  0  0  0  0
    1.3904    1.5495   -0.4138 C   0  0  0  0  0  0  0  0  0  0  0  0
    0.3780    0.5862   -0.2744 C   0  0  0  0  0  0  0  0  0  0  0  0
   -0.7417    0.8803    0.4275 C   0  0  0  0  0  0  0  0  0  0  0  0
   -1.7868   -0.0742    0.5863 C   0  0  0  0  0  0  0  0  0  0  0  0
   -2.8128    0.3220    1.2808 O   0  0  0  0  0  0  0  0  0  0  0  0
   -4.1025    0.5975    1.3636 C   0  0  0  0  0  0  0  0  0  0  0  0
   -4.4855    1.9502    1.6392 C   0  0  0  0  0  0  0  0  0  0  0  0
   -5.7864    2.2835    1.7348 C   0  0  0  0  0  0  0  0  0  0  0  0
   -6.8013    1.3781    1.5795 C   0  0  0  0  0  0  0  0  0  0  0  0
   -8.0864    1.7574    1.6825 F   0  0  0  0  0  0  0  0  0  0  0  0
   -6.4523    0.0883    1.3177 C   0  0  0  0  0  0  0  0  0  0  0  0
   -5.1153   -0.2996    1.2110 C   0  0  0  0  0  0  0  0  0  0  0  0
   -4.9262   -1.6437    0.9678 F   0  0  0  0  0  0  0  0  0  0  0  0
   -1.5452   -1.2660   -0.0198 C   0  0  0  0  0  0  0  0  0  0  0  0
   -2.3712   -2.2005    0.0365 O   0  0  0  0  0  0  0  0  0  0  0  0
   -0.4023   -1.5392   -0.7258 N   0  0  0  0  0  0  0  0  0  0  0  0
   -0.2396   -2.8518   -1.3403 C   0  0  0  0  0  0  0  0  0  0  0  0
    0.5710   -0.6405   -0.8706 C   0  0  0  0  0  0  0  0  0  0  0  0
    1.6993   -0.9034   -1.5658 N   0  0  0  0  0  0  0  0  0  0  0  0
   -5.2602   -0.8350    0.7750 N   0  0  0  0  0  0  0  0  0  0  0  0
   -4.1256   -0.0295    1.1316 C   0  0  0  0  0  0  0  0  0  0  0  0
   -3.8430    0.1845    2.3702 N   0  0  0  0  0  4  0  0  0  0  0  0
   -3.2838    0.5537    0.1485 N   0  0  0  0  0  0  0  0  0  0  0  0
   -2.1525    1.3576    0.5679 C   0  0  0  0  0  0  0  0  0  0  0  0
   -1.1771    0.5611    1.4179 C   0  0  0  0  0  0  0  0  0  0  0  0
   -0.0502    1.5352    1.7786 C   0  0  0  0  0  0  0  0  0  0  0  0
    0.5519    1.9890    0.4733 C   0  0  0  0  0  0  0  0  0  0  0  0
    1.0827    0.7840   -0.2613 C   0  0  0  0  0  0  0  0  0  0  0  0
    0.9420   -0.3215    0.3033 O   0  0  0  0  0  0  0  0  0  0  0  0
    1.6912    0.8528   -1.4796 N   0  0  0  0  0  0  0  0  0  0  0  0
    2.2624    0.0580   -2.3960 C   0  0  0  0  0  0  0  0  0  0  0  0
    3.4145   -0.7612   -2.1524 C   0  0  0  0  0  0  0  0  0  0  0  0
    3.3051   -1.8538   -1.2185 C   0  0  0  0  0  0  0  0  0  0  0  0
    4.3988   -2.2980   -0.3862 N   0  0  0  0  0  0  0  0  0  0  0  0
    2.2438   -2.4998   -1.0723 O   0  0  0  0  0  0  0  0  0  0  0  0
  2  1  1  6
  2  3  1  0
  3  4  1  0
  4  5  1  0
  5  6  2  0
  6  7  1  0
  7  8  2  0
  2  9  1  0
  9 10  1  0
 10 11  2  0
 11 12  1  0
 12 13  2  0
 13 14  1  0
 14 15  2  0
 15 16  1  0
 16 17  1  0
 17 18  2  0
 18 19  1  0
 19 20  2  0
 20 21  1  0
 20 22  1  0
 22 23  2  0
 23 24  1  0
 15 25  1  0
 25 26  2  0
 25 27  1  0
 27 28  1  0
 27 29  1  0
 29 30  2  0
 31 32  1  0
 32 33  2  0
 32 34  1  0
 34 35  1  0
 35 36  1  0
 36 37  1  0
 37 38  1  0
 38 39  1  0
 39 40  2  0
 39 41  1  0
 41 42  1  0
 42 43  1  0
 43 44  1  0
 44 45  1  0
 44 46  2  0
  8  4  1  0
 30 10  1  0
 29 13  1  0
 23 17  1  0
M  CHG  1  33   1
M  END

