
     RDKit          3D

 20 21  0  0  0  0  0  0  0  0999 V2000
    6.0212    0.0130    0.9425 N   0  0  0  0  0  4  0  0  0  0  0  0
    5.8772    1.4605    0.9580 C   0  0  0  0  0  0  0  0  0  0  0  0
    5.2767    1.8636   -0.3515 C   0  0  0  0  0  0  0  0  0  0  0  0
    3.9219    1.1811   -0.4890 C   0  0  0  0  0  0  0  0  0  0  0  0
    4.1951   -0.3080   -0.4346 C   0  0  0  0  0  0  0  0  0  0  0  0
    2.8771   -1.0300   -0.5679 C   0  0  0  0  0  0  0  0  0  0  0  0
    2.0110   -0.6272    0.5318 N   0  0  0  0  0  0  0  0  0  0  0  0
    0.7056   -1.1826    0.6182 C   0  0  0  0  0  0  0  0  0  0  0  0
    0.3452   -2.0032   -0.2588 O   0  0  0  0  0  0  0  0  0  0  0  0
   -0.1575   -0.7668    1.7331 C   0  0  0  0  0  0  0  0  0  0  0  0
   -1.5077   -1.4249    1.7145 C   0  0  0  0  0  0  0  0  0  0  0  0
   -2.2709   -1.1257    0.4733 C   0  0  0  0  0  0  0  0  0  0  0  0
   -2.5085   -1.9093   -0.6201 C   0  0  0  0  0  0  0  0  0  0  0  0
   -3.2500   -1.2103   -1.4951 N   0  0  0  0  0  0  0  0  0  0  0  0
   -3.5079    0.0194   -1.0032 C   0  0  0  0  0  0  0  0  0  0  0  0
   -4.1961    1.1219   -1.4458 C   0  0  0  0  0  0  0  0  0  0  0  0
   -4.2783    2.2745   -0.6727 C   0  0  0  0  0  0  0  0  0  0  0  0
   -3.6758    2.3370    0.5459 C   0  0  0  0  0  0  0  0  0  0  0  0
   -2.9821    1.2350    1.0001 C   0  0  0  0  0  0  0  0  0  0  0  0
   -2.8961    0.0820    0.2339 C   0  0  0  0  0  0  0  0  0  0  0  0
  1  2  1  0
  2  3  1  0
  3  4  1  0
  4  5  1  0
  5  6  1  0
  6  7  1  0
  7  8  1  0
  8  9  2  0
  8 10  1  0
 10 11  1  0
 11 12  1  0
 12 13  2  0
 13 14  1  0
 14 15  1  0
 15 16  2  0
 16 17  1  0
 17 18  2  0
 18 19  1  0
 19 20  2  0
 20 12  1  0
 20 15  1  0
M  CHG  1   1   1
M  END

