
     RDKit          3D

 16 15  0  0  0  0  0  0  0  0999 V2000
    3.9277    2.1025    0.2374 C   0  0  0  0  0  0  0  0  0  0  0  0
    2.9796    1.1492   -0.4362 C   0  0  0  0  0  0  0  0  0  0  0  0
    2.3924    1.7169   -1.6862 C   0  0  0  0  0  0  0  0  0  0  0  0
    3.6454   -0.1834   -0.6359 C   0  0  0  0  0  0  0  0  0  0  0  0
    2.7151   -1.1619   -1.3113 C   0  0  0  0  0  0  0  0  0  0  0  0
    1.4879   -1.3628   -0.4616 C   0  0  0  0  0  0  0  0  0  0  0  0
    1.3282   -0.7839    0.6156 O   0  0  0  0  0  0  0  0  0  0  0  0
    0.5187   -2.2486   -0.9524 N   0  0  0  0  0  0  0  0  0  0  0  0
   -0.6806   -2.7096   -0.5730 C   0  0  0  0  0  0  0  0  0  0  0  0
   -1.9539   -2.1905   -0.3653 C   0  0  0  0  0  0  0  0  0  0  0  0
   -2.2242   -1.1174    0.5791 C   0  0  0  0  0  0  0  0  0  0  0  0
   -1.5525    0.1604    0.2152 C   0  0  0  0  0  0  0  0  0  0  0  0
   -1.8118    1.2378    1.1452 N   0  0  0  0  0  0  0  0  0  0  0  0
   -3.1619    1.6435    1.3369 C   0  0  0  0  0  0  0  0  0  0  0  0
   -3.5126    2.6999    2.2367 N   0  0  0  0  0  0  0  0  0  0  0  0
   -4.0976    1.0479    0.6862 N   0  0  0  0  0  4  0  0  0  0  0  0
  1  2  1  0
  2  3  1  0
  2  4  1  0
  4  5  1  0
  5  6  1  0
  6  7  2  0
  6  8  1  0
  8  9  1  0
  9 10  1  0
 10 11  1  0
 11 12  1  0
 12 13  1  0
 13 14  1  0
 14 15  1  0
 14 16  2  0
M  CHG  1  16   1
M  END

