
     RDKit          3D

 17 17  0  0  0  0  0  0  0  0999 V2000
    6.8423   -1.0762    1.6135 N   0  0  0  0  0  0  0  0  0  0  0  0
    5.8615   -0.4274    0.8526 C   0  0  0  0  0  0  0  0  0  0  0  0
    6.2255    0.3859   -0.0365 O   0  0  0  0  0  0  0  0  0  0  0  0
    4.4016   -0.6366    1.0257 C   0  0  0  0  0  0  0  0  0  0  0  0
    3.5798    0.1780    0.0872 C   0  0  0  0  0  0  0  0  0  0  0  0
    2.1463   -0.0922    0.3292 C   0  0  0  0  0  0  0  0  0  0  0  0
    1.8313   -0.9104    1.2255 O   0  0  0  0  0  0  0  0  0  0  0  0
    1.0993    0.5179   -0.3913 N   0  0  0  0  0  0  0  0  0  0  0  0
   -0.3022    0.2435   -0.1433 C   0  0  0  0  0  0  0  0  0  0  0  0
   -1.1803    1.0595   -1.0856 C   0  0  0  0  0  0  0  0  0  0  0  0
   -2.6110    0.7668   -0.8184 C   0  0  0  0  0  0  0  0  0  0  0  0
   -3.3377    1.5092    0.1074 C   0  0  0  0  0  0  0  0  0  0  0  0
   -4.6661    1.2163    0.3369 C   0  0  0  0  0  0  0  0  0  0  0  0
   -5.3283    0.2006   -0.3199 C   0  0  0  0  0  0  0  0  0  0  0  0
   -6.6734   -0.0850   -0.0777 O   0  0  0  0  0  0  0  0  0  0  0  0
   -4.6070   -0.5345   -1.2372 C   0  0  0  0  0  0  0  0  0  0  0  0
   -3.2815   -0.2445   -1.4682 C   0  0  0  0  0  0  0  0  0  0  0  0
  1  2  1  0
  2  3  2  0
  2  4  1  0
  4  5  1  0
  5  6  1  0
  6  7  2  0
  6  8  1  0
  8  9  1  0
  9 10  1  0
 10 11  1  0
 11 12  2  0
 12 13  1  0
 13 14  2  0
 14 15  1  0
 14 16  1  0
 16 17  2  0
 17 11  1  0
M  END

