
     RDKit          3D

  7  6  0  0  0  0  0  0  0  0999 V2000
    2.4854   -0.0421   -0.5145 C   0  0  0  0  0  0  0  0  0  0  0  0
    1.0969    0.1464   -0.0047 C   0  0  0  0  0  0  0  0  0  0  0  0
    0.7017    1.3276    0.1048 O   0  0  0  0  0  0  0  0  0  0  0  0
    0.3415   -0.9934    0.3120 N   0  0  0  0  0  0  0  0  0  0  0  0
   -0.9916   -0.9756    0.7978 C   0  0  0  0  0  0  0  0  0  0  0  0
   -1.9374   -0.3807   -0.1692 C   0  0  0  0  0  0  0  0  0  0  0  0
   -1.6965    0.9179   -0.5262 O   0  0  0  0  0  0  0  0  0  0  0  0
  1  2  1  0
  2  3  2  0
  2  4  1  0
  4  5  1  0
  5  6  1  0
  6  7  1  0
M  END

