
     RDKit          3D

 45 48  0  0  0  0  0  0  0  0999 V2000
   -4.6619   -0.8563    0.2351 C   0  0  0  0  0  0  0  0  0  0  0  0
   -4.6633    0.7569    0.6895 C   0  0  2  0  0  0  0  0  0  0  0  0
   -5.7109    1.1821   -0.5449 C   0  0  0  0  0  0  0  0  0  0  0  0
   -6.8871    0.4265   -0.3181 N   0  0  0  0  0  0  0  0  0  0  0  0
   -7.1291   -0.7609   -0.7954 N   0  0  0  0  0  0  0  0  0  0  0  0
   -8.3325   -1.1752   -0.3813 C   0  0  0  0  0  0  0  0  0  0  0  0
   -8.8091   -0.1713    0.3758 N   0  0  0  0  0  0  0  0  0  0  0  0
   -7.9103    0.7908    0.3978 N   0  0  0  0  0  0  0  0  0  0  0  0
   -3.4093    1.1100   -0.2039 N   0  0  0  0  0  0  0  0  0  0  0  0
   -2.2225    0.4370    0.0629 C   0  0  0  0  0  0  0  0  0  0  0  0
   -2.0134   -0.4949    1.0081 N   0  0  0  0  0  0  0  0  0  0  0  0
   -0.8219   -1.0895    1.1865 C   0  0  0  0  0  0  0  0  0  0  0  0
    0.2448   -0.7511    0.3845 C   0  0  0  0  0  0  0  0  0  0  0  0
    1.4892   -1.3331    0.5277 C   0  0  0  0  0  0  0  0  0  0  0  0
    2.4826   -0.9237   -0.3233 C   0  0  0  0  0  0  0  0  0  0  0  0
    3.7370   -1.4931   -0.1980 O   0  0  0  0  0  0  0  0  0  0  0  0
    4.8752   -0.7864    0.0790 C   0  0  0  0  0  0  0  0  0  0  0  0
    5.9199   -0.8124   -0.8234 C   0  0  0  0  0  0  0  0  0  0  0  0
    7.0561   -0.0976   -0.5308 C   0  0  0  0  0  0  0  0  0  0  0  0
    7.1653    0.6334    0.6330 C   0  0  0  0  0  0  0  0  0  0  0  0
    8.2721    1.3381    0.9322 F   0  0  0  0  0  0  0  0  0  0  0  0
    6.1277    0.6621    1.5342 C   0  0  0  0  0  0  0  0  0  0  0  0
    4.9861   -0.0521    1.2470 C   0  0  0  0  0  0  0  0  0  0  0  0
    3.9607   -0.0373    2.1143 F   0  0  0  0  0  0  0  0  0  0  0  0
    2.2769    0.0326   -1.2967 C   0  0  0  0  0  0  0  0  0  0  0  0
    3.2413    0.3545   -2.0394 O   0  0  0  0  0  0  0  0  0  0  0  0
    1.0485    0.5717   -1.3990 N   0  0  0  0  0  0  0  0  0  0  0  0
    0.8189    1.5880   -2.4291 C   0  0  0  0  0  0  0  0  0  0  0  0
    0.0397    0.1967   -0.5799 C   0  0  0  0  0  0  0  0  0  0  0  0
   -1.1707    0.7545   -0.7099 N   0  0  0  0  0  0  0  0  0  0  0  0
    4.0603   -2.4535   -0.3420 N   0  0  0  0  0  0  0  0  0  0  0  0
    3.3887   -1.5328   -1.2171 C   0  0  0  0  0  0  0  0  0  0  0  0
    3.1538   -1.8435   -2.4479 N   0  0  0  0  0  4  0  0  0  0  0  0
    2.9704   -0.2750   -0.7622 N   0  0  0  0  0  0  0  0  0  0  0  0
    2.2826    0.6994   -1.6125 C   0  0  0  0  0  0  0  0  0  0  0  0
    2.0149    1.9052   -0.7358 C   0  0  0  0  0  0  0  0  0  0  0  0
    1.1608    1.4724    0.4083 C   0  0  0  0  0  0  0  0  0  0  0  0
   -0.1527    0.9089   -0.0905 C   0  0  0  0  0  0  0  0  0  0  0  0
   -1.0180    0.4720    1.0332 C   0  0  0  0  0  0  0  0  0  0  0  0
   -0.5833    0.6132    2.1999 O   0  0  0  0  0  0  0  0  0  0  0  0
   -2.2844   -0.0845    0.8441 N   0  0  0  0  0  0  0  0  0  0  0  0
   -3.1874   -0.5335    1.8634 C   0  0  0  0  0  0  0  0  0  0  0  0
   -4.5068    0.0489    1.3891 C   0  0  0  0  0  0  0  0  0  0  0  0
   -4.3654    0.1237   -0.1129 C   0  0  0  0  0  0  0  0  0  0  0  0
   -2.9335   -0.3171   -0.4172 C   0  0  0  0  0  0  0  0  0  0  0  0
  2  1  1  6
  2  3  1  0
  3  4  1  0
  4  5  1  0
  5  6  2  0
  6  7  1  0
  7  8  2  0
  2  9  1  0
  9 10  1  0
 10 11  2  0
 11 12  1  0
 12 13  2  0
 13 14  1  0
 14 15  2  0
 15 16  1  0
 16 17  1  0
 17 18  2  0
 18 19  1  0
 19 20  2  0
 20 21  1  0
 20 22  1  0
 22 23  2  0
 23 24  1  0
 15 25  1  0
 25 26  2  0
 25 27  1  0
 27 28  1  0
 27 29  1  0
 29 30  2  0
 31 32  1  0
 32 33  2  0
 32 34  1  0
 34 35  1  0
 35 36  1  0
 36 37  1  0
 37 38  1  0
 38 39  1  0
 39 40  2  0
 39 41  1  0
 41 42  1  0
 42 43  1  0
 43 44  1  0
 44 45  1  0
  8  4  1  0
 30 10  1  0
 45 41  1  0
 29 13  1  0
 23 17  1  0
M  CHG  1  33   1
M  END

