
     RDKit          3D

 10  9  0  0  0  0  0  0  0  0999 V2000
    3.5108   -0.6537    1.5966 C   0  0  0  0  0  0  0  0  0  0  0  0
    2.4314    0.1787    0.9780 C   0  0  0  0  0  0  0  0  0  0  0  0
    1.4633   -0.6685    0.2405 C   0  0  0  0  0  0  0  0  0  0  0  0
    1.6187   -1.9134    0.2007 O   0  0  0  0  0  0  0  0  0  0  0  0
    0.3871   -0.0594   -0.4016 N   0  0  0  0  0  0  0  0  0  0  0  0
   -0.6301   -0.7870   -1.1579 C   0  0  0  0  0  0  0  0  0  0  0  0
   -1.5953    0.2552   -1.6771 C   0  0  0  0  0  0  0  0  0  0  0  0
   -2.1956    0.9791   -0.5427 C   0  0  0  0  0  0  0  0  0  0  0  0
   -3.1346    2.0065   -0.7957 N   0  0  0  0  0  0  0  0  0  0  0  0
   -1.8558    0.6626    0.6148 O   0  0  0  0  0  0  0  0  0  0  0  0
  1  2  1  0
  2  3  1  0
  3  4  2  0
  3  5  1  0
  5  6  1  0
  6  7  1  0
  7  8  1  0
  8  9  1  0
  8 10  2  0
M  END

