
     RDKit          3D

 46 49  0  0  0  0  0  0  0  0999 V2000
    4.0079   -1.3174   -0.2587 C   0  0  0  0  0  0  0  0  0  0  0  0
    4.7035   -0.2633    0.8419 C   0  0  1  0  0  0  0  0  0  0  0  0
    5.9689   -0.0936   -0.0394 O   0  0  0  0  0  0  0  0  0  0  0  0
    3.9628    1.0642    0.1507 C   0  0  0  0  0  0  0  0  0  0  0  0
    2.5336    0.6887    0.3189 C   0  0  0  0  0  0  0  0  0  0  0  0
    2.1145   -0.3566    0.8463 O   0  0  0  0  0  0  0  0  0  0  0  0
    1.5251    1.5900   -0.1585 N   0  0  0  0  0  0  0  0  0  0  0  0
    0.1398    1.2840   -0.0252 C   0  0  0  0  0  0  0  0  0  0  0  0
   -0.2861    0.0223   -0.7160 C   0  0  0  0  0  0  0  0  0  0  0  0
   -1.7466   -0.1536   -0.4834 C   0  0  0  0  0  0  0  0  0  0  0  0
   -2.2342   -0.8491    0.6028 C   0  0  0  0  0  0  0  0  0  0  0  0
   -3.5803   -1.0272    0.8426 C   0  0  0  0  0  0  0  0  0  0  0  0
   -4.5132   -0.4981   -0.0247 C   0  0  0  0  0  0  0  0  0  0  0  0
   -5.8797   -0.6662    0.1986 O   0  0  0  0  0  0  0  0  0  0  0  0
   -4.0323    0.1998   -1.1147 C   0  0  0  0  0  0  0  0  0  0  0  0
   -2.6837    0.3761   -1.3517 C   0  0  0  0  0  0  0  0  0  0  0  0
    5.3829   -0.9145   -3.1237 C   0  0  0  0  0  0  0  0  0  0  0  0
    4.0443   -0.0006   -2.7824 C   0  0  2  0  0  0  0  0  0  0  0  0
    4.7048    0.7090   -1.4519 C   0  0  0  0  0  0  0  0  0  0  0  0
    5.0404   -0.3351   -0.5255 N   0  0  0  0  0  0  0  0  0  0  0  0
    6.2324   -0.9078   -0.5607 N   0  0  0  0  0  0  0  0  0  0  0  0
    6.3338   -1.8506    0.3845 C   0  0  0  0  0  0  0  0  0  0  0  0
    5.1408   -1.8210    0.9962 N   0  0  0  0  0  0  0  0  0  0  0  0
    4.3837   -0.9064    0.4344 N   0  0  0  0  0  0  0  0  0  0  0  0
    3.3251   -1.1448   -1.9772 N   0  0  0  0  0  0  0  0  0  0  0  0
    2.0612   -0.6815   -1.5030 C   0  0  0  0  0  0  0  0  0  0  0  0
    1.5570    0.5273   -1.7033 N   0  0  0  0  0  0  0  0  0  0  0  0
    0.3611    0.9298   -1.2409 C   0  0  0  0  0  0  0  0  0  0  0  0
   -0.3820    0.0204   -0.5126 C   0  0  0  0  0  0  0  0  0  0  0  0
   -1.6298    0.3531    0.0030 C   0  0  0  0  0  0  0  0  0  0  0  0
   -2.3378   -0.5799    0.7222 C   0  0  0  0  0  0  0  0  0  0  0  0
   -3.5642   -0.2704    1.2357 O   0  0  0  0  0  0  0  0  0  0  0  0
   -4.1912    0.9576    1.0913 C   0  0  0  0  0  0  0  0  0  0  0  0
   -5.4103    1.0483    0.4693 C   0  0  0  0  0  0  0  0  0  0  0  0
   -6.0130    2.2939    0.3402 C   0  0  0  0  0  0  0  0  0  0  0  0
   -5.4037    3.4140    0.8242 C   0  0  0  0  0  0  0  0  0  0  0  0
   -5.9861    4.6281    0.7011 F   0  0  0  0  0  0  0  0  0  0  0  0
   -4.1878    3.3128    1.4430 C   0  0  0  0  0  0  0  0  0  0  0  0
   -3.5620    2.0785    1.5858 C   0  0  0  0  0  0  0  0  0  0  0  0
   -2.3596    2.0300    2.2054 F   0  0  0  0  0  0  0  0  0  0  0  0
   -1.8237   -1.8391    0.9365 C   0  0  0  0  0  0  0  0  0  0  0  0
   -2.4926   -2.6942    1.6059 O   0  0  0  0  0  0  0  0  0  0  0  0
   -0.6192   -2.1327    0.4283 N   0  0  0  0  0  0  0  0  0  0  0  0
   -0.0359   -3.4351    0.6233 C   0  0  0  0  0  0  0  0  0  0  0  0
    0.1157   -1.2382   -0.2901 C   0  0  0  0  0  0  0  0  0  0  0  0
    1.3159   -1.5508   -0.7889 N   0  0  0  0  0  0  0  0  0  0  0  0
  2  1  1  6
  2  3  1  0
  2  4  1  0
  4  5  1  0
  5  6  2  0
  5  7  1  0
  7  8  1  0
  8  9  1  0
  9 10  1  0
 10 11  2  0
 11 12  1  0
 12 13  2  0
 13 14  1  0
 13 15  1  0
 15 16  2  0
 18 17  1  6
 18 19  1  0
 19 20  1  0
 20 21  1  0
 21 22  2  0
 22 23  1  0
 23 24  2  0
 18 25  1  0
 25 26  1  0
 26 27  2  0
 27 28  1  0
 28 29  2  0
 29 30  1  0
 30 31  2  0
 31 32  1  0
 32 33  1  0
 33 34  2  0
 34 35  1  0
 35 36  2  0
 36 37  1  0
 36 38  1  0
 38 39  2  0
 39 40  1  0
 31 41  1  0
 41 42  2  0
 41 43  1  0
 43 44  1  0
 43 45  1  0
 45 46  2  0
 16 10  1  0
 24 20  1  0
 46 26  1  0
 45 29  1  0
 39 33  1  0
M  END

