
     RDKit          3D

 41 43  0  0  0  0  0  0  0  0999 V2000
    5.6488    0.4597   -2.4169 C   0  0  0  0  0  0  0  0  0  0  0  0
    4.1020    0.7916   -1.9163 C   0  0  2  0  0  0  0  0  0  0  0  0
    4.5844    1.4858   -0.4983 C   0  0  0  0  0  0  0  0  0  0  0  0
    5.3096    0.5303    0.2467 N   0  0  0  0  0  0  0  0  0  0  0  0
    4.8375   -0.3396    1.1356 N   0  0  0  0  0  0  0  0  0  0  0  0
    5.8737   -1.0716    1.6169 C   0  0  0  0  0  0  0  0  0  0  0  0
    6.9607   -0.6171    0.9960 N   0  0  0  0  0  0  0  0  0  0  0  0
    6.6269    0.3484    0.1691 N   0  0  0  0  0  0  0  0  0  0  0  0
    3.8781   -0.6421   -1.2947 N   0  0  0  0  0  0  0  0  0  0  0  0
    2.5843   -0.8265   -0.7050 C   0  0  0  0  0  0  0  0  0  0  0  0
    2.2305   -1.9843   -0.1333 N   0  0  0  0  0  0  0  0  0  0  0  0
    1.0061   -2.1386    0.4174 C   0  0  0  0  0  0  0  0  0  0  0  0
    0.0860   -1.1192    0.4104 C   0  0  0  0  0  0  0  0  0  0  0  0
   -1.1722   -1.2043    0.9490 C   0  0  0  0  0  0  0  0  0  0  0  0
   -1.9870   -0.0846    0.8623 C   0  0  0  0  0  0  0  0  0  0  0  0
   -3.2440   -0.1720    1.4013 O   0  0  0  0  0  0  0  0  0  0  0  0
   -4.4231   -0.0083    0.7027 C   0  0  0  0  0  0  0  0  0  0  0  0
   -5.2784    0.9834    1.0736 C   0  0  0  0  0  0  0  0  0  0  0  0
   -6.4593    1.1692    0.3959 C   0  0  0  0  0  0  0  0  0  0  0  0
   -6.7584    0.3422   -0.6545 C   0  0  0  0  0  0  0  0  0  0  0  0
   -7.9424    0.5459   -1.3165 F   0  0  0  0  0  0  0  0  0  0  0  0
   -5.9201   -0.6601   -1.0485 C   0  0  0  0  0  0  0  0  0  0  0  0
   -4.7263   -0.8491   -0.3645 C   0  0  0  0  0  0  0  0  0  0  0  0
   -3.8804   -1.8412   -0.7427 F   0  0  0  0  0  0  0  0  0  0  0  0
   -1.5700    1.0781    0.2633 C   0  0  0  0  0  0  0  0  0  0  0  0
   -2.2999    2.0909    0.1821 O   0  0  0  0  0  0  0  0  0  0  0  0
   -0.3415    1.1457   -0.2568 N   0  0  0  0  0  0  0  0  0  0  0  0
    0.1388    2.3731   -0.9053 C   0  0  0  0  0  0  0  0  0  0  0  0
    0.4571    0.0659   -0.1784 C   0  0  0  0  0  0  0  0  0  0  0  0
    1.6785    0.1485   -0.7013 N   0  0  0  0  0  0  0  0  0  0  0  0
    3.5896    0.6315    0.8860 O   0  0  0  0  0  1  0  0  0  0  0  0
    2.2761    0.3859    0.4520 C   0  0  0  0  0  0  0  0  0  0  0  0
    1.5395    1.3639    0.1388 O   0  0  0  0  0  0  0  0  0  0  0  0
    1.7715   -1.0126    0.3622 C   0  0  0  0  0  0  0  0  0  0  0  0
    1.2892   -1.3585   -1.0197 C   0  0  0  0  0  0  0  0  0  0  0  0
    0.2226   -0.5136   -1.4866 N   0  0  0  0  0  0  0  0  0  0  0  0
   -1.0377   -0.3603   -0.8574 C   0  0  0  0  0  0  0  0  0  0  0  0
   -1.2391   -1.0239    0.2020 O   0  0  0  0  0  0  0  0  0  0  0  0
   -2.0969    0.5277   -1.3850 C   0  0  0  0  0  0  0  0  0  0  0  0
   -3.3381    0.4727   -0.5190 C   0  0  0  0  0  0  0  0  0  0  0  0
   -2.9768    0.8871    0.7441 O   0  0  0  0  0  0  0  0  0  0  0  0
  2  1  1  6
  2  3  1  0
  3  4  1  0
  4  5  1  0
  5  6  2  0
  6  7  1  0
  7  8  2  0
  2  9  1  0
  9 10  1  0
 10 11  2  0
 11 12  1  0
 12 13  2  0
 13 14  1  0
 14 15  2  0
 15 16  1  0
 16 17  1  0
 17 18  2  0
 18 19  1  0
 19 20  2  0
 20 21  1  0
 20 22  1  0
 22 23  2  0
 23 24  1  0
 15 25  1  0
 25 26  2  0
 25 27  1  0
 27 28  1  0
 27 29  1  0
 29 30  2  0
 31 32  1  0
 32 33  2  0
 32 34  1  0
 34 35  1  0
 35 36  1  0
 36 37  1  0
 37 38  2  0
 37 39  1  0
 39 40  1  0
 40 41  1  0
  8  4  1  0
 30 10  1  0
 29 13  1  0
 23 17  1  0
M  RAD  1  31   2
M  END

