
     RDKit          3D

 13 13  0  0  0  0  0  0  0  0999 V2000
   -3.2251    1.1709   -1.0021 C   0  0  0  0  0  0  0  0  0  0  0  0
   -2.7238    0.1297   -0.0933 C   0  0  0  0  0  0  0  0  0  0  0  0
   -3.0332    0.1027    1.1421 O   0  0  0  0  0  0  0  0  0  0  0  0
   -1.8687   -0.8783   -0.6037 N   0  0  0  0  0  0  0  0  0  0  0  0
   -1.3559   -1.9283    0.2854 C   0  0  0  0  0  0  0  0  0  0  0  0
   -0.5628   -1.2037    1.3690 C   0  0  0  0  0  0  0  0  0  0  0  0
    0.5210   -0.4656    0.6695 C   0  0  0  0  0  0  0  0  0  0  0  0
    1.7157   -1.1219    0.4840 C   0  0  0  0  0  0  0  0  0  0  0  0
    2.7249   -0.4524   -0.1602 C   0  0  0  0  0  0  0  0  0  0  0  0
    2.5600    0.8308   -0.6096 C   0  0  0  0  0  0  0  0  0  0  0  0
    3.5919    1.5222   -1.2711 O   0  0  0  0  0  0  0  0  0  0  0  0
    1.3550    1.4570   -0.4083 C   0  0  0  0  0  0  0  0  0  0  0  0
    0.3011    0.8368    0.2330 C   0  0  0  0  0  0  0  0  0  0  0  0
  1  2  1  0
  2  3  2  0
  2  4  1  0
  4  5  1  0
  5  6  1  0
  6  7  1  0
  7  8  2  0
  8  9  1  0
  9 10  2  0
 10 11  1  0
 10 12  1  0
 12 13  2  0
 13  7  1  0
M  END

