
     RDKit          3D

 20 20  0  0  0  0  0  0  0  0999 V2000
   -0.5447    2.5349   -3.6014 N   0  0  0  0  0  0  0  0  0  0  0  0
   -0.9755    1.7084   -2.5272 C   0  0  0  0  0  0  0  0  0  0  0  0
   -0.4195    0.5779   -2.3460 N   0  0  0  0  0  4  0  0  0  0  0  0
   -2.0110    2.1030   -1.6439 N   0  0  0  0  0  0  0  0  0  0  0  0
   -2.5055    1.3360   -0.5400 C   0  0  0  0  0  0  0  0  0  0  0  0
   -3.0439    0.0106   -1.0114 C   0  0  0  0  0  0  0  0  0  0  0  0
   -3.5568   -0.7472    0.1768 C   0  0  0  0  0  0  0  0  0  0  0  0
   -2.4876   -1.0021    1.1989 C   0  0  0  0  0  0  0  0  0  0  0  0
   -1.4044   -1.7953    0.5677 C   0  0  0  0  0  0  0  0  0  0  0  0
   -1.4547   -2.1105   -0.6476 O   0  0  0  0  0  0  0  0  0  0  0  0
   -0.3177   -2.1694    1.4282 N   0  0  0  0  0  0  0  0  0  0  0  0
    0.7931   -2.9560    0.8705 C   0  0  0  0  0  0  0  0  0  0  0  0
    1.3700   -2.0647   -0.2353 C   0  0  0  0  0  0  0  0  0  0  0  0
    1.8123   -0.8137    0.4710 C   0  0  0  0  0  0  0  0  0  0  0  0
    0.9445    0.2360    0.6282 C   0  0  0  0  0  0  0  0  0  0  0  0
    1.3960    1.3527    1.2785 C   0  0  0  0  0  0  0  0  0  0  0  0
    2.6773    1.4684    1.7798 C   0  0  0  0  0  0  0  0  0  0  0  0
    3.0902    2.6372    2.4394 O   0  0  0  0  0  0  0  0  0  0  0  0
    3.5320    0.4077    1.6130 C   0  0  0  0  0  0  0  0  0  0  0  0
    3.1058   -0.7136    0.9696 C   0  0  0  0  0  0  0  0  0  0  0  0
  1  2  1  0
  2  3  2  0
  2  4  1  0
  4  5  1  0
  5  6  1  0
  6  7  1  0
  7  8  1  0
  8  9  1  0
  9 10  2  0
  9 11  1  0
 11 12  1  0
 12 13  1  0
 13 14  1  0
 14 15  2  0
 15 16  1  0
 16 17  2  0
 17 18  1  0
 17 19  1  0
 19 20  2  0
 20 14  1  0
M  CHG  1   3   1
M  END

