
     RDKit          3D

 16 15  0  0  0  0  0  0  0  0999 V2000
   -5.5182    0.5055   -0.5289 C   0  0  0  0  0  0  0  0  0  0  0  0
   -4.8453    0.5488    0.8023 C   0  0  0  0  0  0  0  0  0  0  0  0
   -5.3103    1.7470    1.5704 C   0  0  0  0  0  0  0  0  0  0  0  0
   -3.3583    0.5535    0.6805 C   0  0  0  0  0  0  0  0  0  0  0  0
   -2.8071   -0.6496   -0.0150 C   0  0  0  0  0  0  0  0  0  0  0  0
   -1.2964   -0.4963   -0.0585 C   0  0  0  0  0  0  0  0  0  0  0  0
   -0.7554    0.5146    0.4419 O   0  0  0  0  0  0  0  0  0  0  0  0
   -0.4873   -1.4617   -0.6473 N   0  0  0  0  0  0  0  0  0  0  0  0
    0.8955   -1.5455   -0.8061 C   0  0  0  0  0  0  0  0  0  0  0  0
    1.7446   -1.5640    0.4058 C   0  0  0  0  0  0  0  0  0  0  0  0
    1.7582   -0.3828    1.2749 C   0  0  0  0  0  0  0  0  0  0  0  0
    2.3094    0.8895    0.7756 C   0  0  0  0  0  0  0  0  0  0  0  0
    3.6530    1.0090    0.4462 N   0  0  0  0  0  0  0  0  0  0  0  0
    4.3850    0.3273   -0.5059 C   0  0  0  0  0  0  0  0  0  0  0  0
    5.7851    0.5726   -0.7235 N   0  0  0  0  0  0  0  0  0  0  0  0
    3.8474   -0.5680   -1.2516 N   0  0  0  0  0  4  0  0  0  0  0  0
  1  2  1  0
  2  3  1  0
  2  4  1  0
  4  5  1  0
  5  6  1  0
  6  7  2  0
  6  8  1  0
  8  9  1  0
  9 10  1  0
 10 11  1  0
 11 12  1  0
 12 13  1  0
 13 14  1  0
 14 15  1  0
 14 16  2  0
M  CHG  1  16   1
M  END

