
     RDKit          3D

 41 43  0  0  0  0  0  0  0  0999 V2000
   -4.2116    0.5665   -1.1084 C   0  0  0  0  0  0  0  0  0  0  0  0
   -3.3512    1.1684   -0.0032 C   0  0  0  0  0  0  0  0  0  0  0  0
   -2.1472    0.3007    0.2001 C   0  0  0  0  0  0  0  0  0  0  0  0
   -1.9514   -0.7373   -0.4714 O   0  0  0  0  0  0  0  0  0  0  0  0
   -1.2077    0.6623    1.1747 N   0  0  0  0  0  0  0  0  0  0  0  0
   -0.0352   -0.1707    1.3821 C   0  0  0  0  0  0  0  0  0  0  0  0
    0.7822   -0.2582    0.1176 C   0  0  0  0  0  0  0  0  0  0  0  0
    1.9786   -1.1406    0.4216 C   0  0  0  0  0  0  0  0  0  0  0  0
    2.8295   -1.2540   -0.8309 C   0  0  0  0  0  0  0  0  0  0  0  0
    3.2714    0.1437   -1.2050 C   0  0  0  0  0  0  0  0  0  0  0  0
    4.0425    0.7193   -0.1208 N   0  0  0  0  0  4  0  0  0  0  0  0
   -3.7199   -2.0845   -0.8016 C   0  0  0  0  0  0  0  0  0  0  0  0
   -4.4101   -0.8241    0.0372 C   0  0  2  0  0  0  0  0  0  0  0  0
   -5.6525   -0.6813   -1.0839 C   0  0  0  0  0  0  0  0  0  0  0  0
   -6.4389    0.4012   -0.5657 N   0  0  0  0  0  0  0  0  0  0  0  0
   -7.4347    0.2875    0.2634 N   0  0  0  0  0  0  0  0  0  0  0  0
   -7.9460    1.5075    0.5402 C   0  0  0  0  0  0  0  0  0  0  0  0
   -7.2209    2.3925   -0.1570 N   0  0  0  0  0  0  0  0  0  0  0  0
   -6.3236    1.7077   -0.8123 N   0  0  0  0  0  0  0  0  0  0  0  0
   -3.5309    0.2616   -0.7073 N   0  0  0  0  0  0  0  0  0  0  0  0
   -2.1334    0.1058   -0.5379 C   0  0  0  0  0  0  0  0  0  0  0  0
   -1.3701    1.0174   -1.1619 N   0  0  0  0  0  0  0  0  0  0  0  0
   -0.0243    1.0212   -1.1094 C   0  0  0  0  0  0  0  0  0  0  0  0
    0.5790    0.0182   -0.3635 C   0  0  0  0  0  0  0  0  0  0  0  0
    1.9677    0.0090   -0.2998 C   0  0  0  0  0  0  0  0  0  0  0  0
    2.5589   -0.9913    0.4436 C   0  0  0  0  0  0  0  0  0  0  0  0
    3.9523   -1.0944    0.5750 O   0  0  0  0  0  0  0  0  0  0  0  0
    4.7976   -0.1871   -0.0426 C   0  0  0  0  0  0  0  0  0  0  0  0
    5.7163   -0.6482   -0.9592 C   0  0  0  0  0  0  0  0  0  0  0  0
    6.5614    0.2697   -1.5748 C   0  0  0  0  0  0  0  0  0  0  0  0
    6.4525    1.6098   -1.2483 C   0  0  0  0  0  0  0  0  0  0  0  0
    7.2980    2.4963   -1.8696 F   0  0  0  0  0  0  0  0  0  0  0  0
    5.5273    2.0612   -0.3274 C   0  0  0  0  0  0  0  0  0  0  0  0
    4.6806    1.1429    0.2896 C   0  0  0  0  0  0  0  0  0  0  0  0
    3.7510    1.5198    1.2019 F   0  0  0  0  0  0  0  0  0  0  0  0
    1.7663   -1.9187    1.0778 C   0  0  0  0  0  0  0  0  0  0  0  0
    2.3401   -2.8265    1.7540 O   0  0  0  0  0  0  0  0  0  0  0  0
    0.4134   -1.8924    1.0033 N   0  0  0  0  0  0  0  0  0  0  0  0
   -0.3988   -2.8881    1.6858 C   0  0  0  0  0  0  0  0  0  0  0  0
   -0.1986   -0.9224    0.2808 C   0  0  0  0  0  0  0  0  0  0  0  0
   -1.5601   -0.8703    0.1874 N   0  0  0  0  0  0  0  0  0  0  0  0
  1  2  1  0
  2  3  1  0
  3  4  2  0
  3  5  1  0
  5  6  1  0
  6  7  1  0
  7  8  1  0
  8  9  1  0
  9 10  1  0
 10 11  1  0
 13 12  1  6
 13 14  1  0
 14 15  1  0
 15 16  1  0
 16 17  2  0
 17 18  1  0
 18 19  2  0
 13 20  1  0
 20 21  1  0
 21 22  2  0
 22 23  1  0
 23 24  2  0
 24 25  1  0
 25 26  2  0
 26 27  1  0
 27 28  1  0
 28 29  2  0
 29 30  1  0
 30 31  2  0
 31 32  1  0
 31 33  1  0
 33 34  2  0
 34 35  1  0
 26 36  1  0
 36 37  2  0
 36 38  1  0
 38 39  1  0
 38 40  1  0
 40 41  2  0
 19 15  1  0
 41 21  1  0
 40 24  1  0
 34 28  1  0
M  CHG  1  11   1
M  END

