
     RDKit          3D

 13 13  0  0  0  0  0  0  0  0999 V2000
    0.2171   -0.0256    1.0254 O   0  0  0  0  0  0  0  0  0  0  0  0
    0.7609   -0.4138   -0.0396 C   0  0  0  0  0  0  0  0  0  0  0  0
   -0.0825   -1.1759   -0.9973 C   0  0  0  0  0  0  0  0  0  0  0  0
   -1.4847   -1.3555   -0.5358 C   0  0  0  0  0  0  0  0  0  0  0  0
   -2.2068   -0.0798   -0.3207 C   0  0  0  0  0  0  0  0  0  0  0  0
   -1.7189    1.1969   -0.5065 C   0  0  0  0  0  0  0  0  0  0  0  0
   -2.7484    2.0201   -0.1810 N   0  0  0  0  0  0  0  0  0  0  0  0
   -3.7980    1.2710    0.1809 C   0  0  0  0  0  0  0  0  0  0  0  0
   -3.4863   -0.0210    0.1021 N   0  0  0  0  0  0  0  0  0  0  0  0
    2.1162   -0.1249   -0.2904 N   0  0  0  0  0  0  0  0  0  0  0  0
    2.9533    0.6272    0.6519 C   0  0  0  0  0  0  0  0  0  0  0  0
    4.3277    0.7232    0.0207 C   0  0  0  0  0  0  0  0  0  0  0  0
    5.1505    1.4329    0.8904 O   0  0  0  0  0  0  0  0  0  0  0  0
  1  2  2  0
  2  3  1  0
  3  4  1  0
  4  5  1  0
  5  6  2  0
  6  7  1  0
  7  8  1  0
  8  9  2  0
  2 10  1  0
 10 11  1  0
 11 12  1  0
 12 13  1  0
  9  5  1  0
M  END

