
     RDKit          3D

 38 40  0  0  0  0  0  0  0  0999 V2000
   -2.8715    1.0498    0.4286 C   0  0  0  0  0  0  0  0  0  0  0  0
   -1.8086    0.9553   -0.5459 N   0  0  0  0  0  0  0  0  0  0  0  0
   -0.6158    0.3030   -0.1548 C   0  0  0  0  0  0  0  0  0  0  0  0
   -0.5327   -0.1598    1.0068 O   0  0  0  0  0  0  0  0  0  0  0  0
    0.5493    0.1388   -1.0583 C   0  0  0  0  0  0  0  0  0  0  0  0
    1.6847   -0.5814   -0.4153 C   0  0  0  0  0  0  0  0  0  0  0  0
    1.3285   -1.9646    0.0390 C   0  0  0  0  0  0  0  0  0  0  0  0
    2.2663    0.2588    0.7000 C   0  0  0  0  0  0  0  0  0  0  0  0
   -4.8993   -1.2806    1.3195 C   0  0  0  0  0  0  0  0  0  0  0  0
   -5.1523    0.2856    1.7591 C   0  0  2  0  0  0  0  0  0  0  0  0
   -4.6334    0.9233    0.3411 C   0  0  0  0  0  0  0  0  0  0  0  0
   -5.4675    0.4133   -0.6794 N   0  0  0  0  0  0  0  0  0  0  0  0
   -5.2226   -0.6876   -1.3337 N   0  0  0  0  0  0  0  0  0  0  0  0
   -6.1794   -0.9055   -2.2242 C   0  0  0  0  0  0  0  0  0  0  0  0
   -7.0395    0.1272   -2.0877 N   0  0  0  0  0  0  0  0  0  0  0  0
   -6.5772    0.9183   -1.1343 N   0  0  0  0  0  0  0  0  0  0  0  0
   -3.7929    0.4079    2.5025 N   0  0  0  0  0  0  0  0  0  0  0  0
   -2.5939    0.1394    1.8262 C   0  0  0  0  0  0  0  0  0  0  0  0
   -2.6827   -0.2247    0.5326 N   0  0  0  0  0  0  0  0  0  0  0  0
   -1.6213   -0.5081   -0.2264 C   0  0  0  0  0  0  0  0  0  0  0  0
   -0.3529   -0.4306    0.3229 C   0  0  0  0  0  0  0  0  0  0  0  0
    0.7699   -0.6991   -0.3723 C   0  0  0  0  0  0  0  0  0  0  0  0
    2.0714   -0.6155    0.2042 C   0  0  0  0  0  0  0  0  0  0  0  0
    3.1128   -0.9088   -0.5891 O   0  0  0  0  0  0  0  0  0  0  0  0
    4.2040   -0.3788   -1.1470 C   0  0  0  0  0  0  0  0  0  0  0  0
    4.2144   -0.2815   -2.5781 C   0  0  0  0  0  0  0  0  0  0  0  0
    5.2557    0.2305   -3.2473 C   0  0  0  0  0  0  0  0  0  0  0  0
    6.3738    0.6903   -2.5747 C   0  0  0  0  0  0  0  0  0  0  0  0
    7.4181    1.2062   -3.2687 F   0  0  0  0  0  0  0  0  0  0  0  0
    6.4313    0.6265   -1.2016 C   0  0  0  0  0  0  0  0  0  0  0  0
    5.3238    0.0830   -0.5184 C   0  0  0  0  0  0  0  0  0  0  0  0
    5.5114    0.0365    0.8382 F   0  0  0  0  0  0  0  0  0  0  0  0
    2.0702   -0.2414    1.5175 C   0  0  0  0  0  0  0  0  0  0  0  0
    3.1453   -0.1267    2.1692 O   0  0  0  0  0  0  0  0  0  0  0  0
    0.9377    0.0306    2.2212 N   0  0  0  0  0  0  0  0  0  0  0  0
    1.0319    0.4276    3.6324 C   0  0  0  0  0  0  0  0  0  0  0  0
   -0.2717   -0.0579    1.6447 C   0  0  0  0  0  0  0  0  0  0  0  0
   -1.3849    0.2138    2.3517 N   0  0  0  0  0  0  0  0  0  0  0  0
  1  2  1  0
  2  3  1  0
  3  4  2  0
  3  5  1  0
  5  6  1  0
  6  7  1  0
  6  8  1  0
 10  9  1  6
 10 11  1  0
 11 12  1  0
 12 13  1  0
 13 14  2  0
 14 15  1  0
 15 16  2  0
 10 17  1  0
 17 18  1  0
 18 19  2  0
 19 20  1  0
 20 21  2  0
 21 22  1  0
 22 23  2  0
 23 24  1  0
 24 25  1  0
 25 26  2  0
 26 27  1  0
 27 28  2  0
 28 29  1  0
 28 30  1  0
 30 31  2  0
 31 32  1  0
 23 33  1  0
 33 34  2  0
 33 35  1  0
 35 36  1  0
 35 37  1  0
 37 38  2  0
 16 12  1  0
 38 18  1  0
 37 21  1  0
 31 25  1  0
M  END

