
     RDKit          3D

 45 47  0  0  0  0  0  0  0  0999 V2000
   -4.0640   -1.2974   -0.7326 C   0  0  0  0  0  0  0  0  0  0  0  0
   -4.4111   -1.6631    0.8221 C   0  0  2  0  0  0  0  0  0  0  0  0
   -5.9222   -1.0639    0.8138 C   0  0  0  0  0  0  0  0  0  0  0  0
   -5.9044    0.3190    0.5010 N   0  0  0  0  0  0  0  0  0  0  0  0
   -5.9875    0.7477   -0.7479 N   0  0  0  0  0  0  0  0  0  0  0  0
   -5.9502    2.0880   -0.7904 C   0  0  0  0  0  0  0  0  0  0  0  0
   -5.8397    2.4916    0.4859 N   0  0  0  0  0  0  0  0  0  0  0  0
   -5.8139    1.4016    1.2512 N   0  0  0  0  0  0  0  0  0  0  0  0
   -3.7619   -0.3724    1.4102 N   0  0  0  0  0  0  0  0  0  0  0  0
   -2.3595   -0.2612    1.1052 C   0  0  0  0  0  0  0  0  0  0  0  0
   -1.6513    0.7957    1.5401 N   0  0  0  0  0  0  0  0  0  0  0  0
   -0.3387    0.9320    1.2737 C   0  0  0  0  0  0  0  0  0  0  0  0
    0.3198   -0.0242    0.5370 C   0  0  0  0  0  0  0  0  0  0  0  0
    1.6553    0.0378    0.2208 C   0  0  0  0  0  0  0  0  0  0  0  0
    2.2586   -0.9453   -0.5171 C   0  0  0  0  0  0  0  0  0  0  0  0
    3.5898   -0.9522   -0.8728 O   0  0  0  0  0  0  0  0  0  0  0  0
    4.5027    0.0204   -0.5416 C   0  0  0  0  0  0  0  0  0  0  0  0
    5.6177   -0.2912    0.2015 C   0  0  0  0  0  0  0  0  0  0  0  0
    6.5223    0.6958    0.5245 C   0  0  0  0  0  0  0  0  0  0  0  0
    6.3741    2.0129    0.1377 C   0  0  0  0  0  0  0  0  0  0  0  0
    7.2890    2.9627    0.4752 F   0  0  0  0  0  0  0  0  0  0  0  0
    5.2483    2.3004   -0.6065 C   0  0  0  0  0  0  0  0  0  0  0  0
    4.3362    1.3277   -0.9371 C   0  0  0  0  0  0  0  0  0  0  0  0
    3.2395    1.6751   -1.6773 F   0  0  0  0  0  0  0  0  0  0  0  0
    1.4919   -2.0095   -0.9409 C   0  0  0  0  0  0  0  0  0  0  0  0
    2.0189   -2.9407   -1.6280 O   0  0  0  0  0  0  0  0  0  0  0  0
    0.1856   -2.1043   -0.6516 N   0  0  0  0  0  0  0  0  0  0  0  0
   -0.5732   -3.2488   -1.1247 C   0  0  0  0  0  0  0  0  0  0  0  0
   -0.3851   -1.1172    0.0800 C   0  0  0  0  0  0  0  0  0  0  0  0
   -1.6869   -1.1773    0.3885 N   0  0  0  0  0  0  0  0  0  0  0  0
   -3.9102   -0.6759   -2.0194 O   0  0  0  0  0  1  0  0  0  0  0  0
   -3.5051    0.1879   -1.0122 C   0  0  0  0  0  0  0  0  0  0  0  0
   -3.5589   -0.0850    0.1973 O   0  0  0  0  0  0  0  0  0  0  0  0
   -2.9785    1.5160   -1.4259 C   0  0  0  0  0  0  0  0  0  0  0  0
   -2.6049    2.3537   -0.2260 C   0  0  0  0  0  0  0  0  0  0  0  0
   -1.5429    1.6608    0.6108 C   0  0  0  0  0  0  0  0  0  0  0  0
   -0.3841    1.4498   -0.2349 N   0  0  0  0  0  0  0  0  0  0  0  0
    0.8152    0.8074    0.2885 C   0  0  0  0  0  0  0  0  0  0  0  0
    0.7344    0.4847    1.4748 O   0  0  0  0  0  0  0  0  0  0  0  0
    1.9185    0.6194   -0.5715 C   0  0  0  0  0  0  0  0  0  0  0  0
    3.1343   -0.0026   -0.2519 C   0  0  0  0  0  0  0  0  0  0  0  0
    3.3600   -1.3012    0.1464 C   0  0  0  0  0  0  0  0  0  0  0  0
    2.9613   -2.0521    1.2984 C   0  0  0  0  0  0  0  0  0  0  0  0
    2.4253   -1.6211    2.4985 O   0  0  0  0  0  1  0  0  0  0  0  0
    3.1356   -3.3418    1.2051 O   0  0  0  0  0  0  0  0  0  0  0  0
  2  1  1  6
  2  3  1  0
  3  4  1  0
  4  5  1  0
  5  6  2  0
  6  7  1  0
  7  8  2  0
  2  9  1  0
  9 10  1  0
 10 11  2  0
 11 12  1  0
 12 13  2  0
 13 14  1  0
 14 15  2  0
 15 16  1  0
 16 17  1  0
 17 18  2  0
 18 19  1  0
 19 20  2  0
 20 21  1  0
 20 22  1  0
 22 23  2  0
 23 24  1  0
 15 25  1  0
 25 26  2  0
 25 27  1  0
 27 28  1  0
 27 29  1  0
 29 30  2  0
 31 32  1  0
 32 33  2  0
 32 34  1  0
 34 35  1  0
 35 36  1  0
 36 37  1  0
 37 38  1  0
 38 39  2  0
 38 40  1  0
 40 41  1  0
 41 42  1  0
 42 43  1  0
 43 44  1  0
 43 45  2  0
  8  4  1  0
 30 10  1  0
 29 13  1  0
 23 17  1  0
M  RAD  2  31   2  44   2
M  END

