
     RDKit          3D

 16 16  0  0  0  0  0  0  0  0999 V2000
    4.5482    1.9290   -0.5021 C   0  0  0  0  0  0  0  0  0  0  0  0
    3.7610    0.7843    0.1015 C   0  0  0  0  0  0  0  0  0  0  0  0
    4.6781   -0.4131    0.2532 C   0  0  0  0  0  0  0  0  0  0  0  0
    2.6430    0.4489   -0.8319 C   0  0  0  0  0  0  0  0  0  0  0  0
    1.8029   -0.6706   -0.3294 C   0  0  0  0  0  0  0  0  0  0  0  0
    2.0805   -1.2126    0.7695 O   0  0  0  0  0  0  0  0  0  0  0  0
    0.6836   -1.1669   -1.0406 N   0  0  0  0  0  0  0  0  0  0  0  0
   -0.1571   -2.2377   -0.6065 C   0  0  0  0  0  0  0  0  0  0  0  0
   -0.8411   -1.9980    0.7005 C   0  0  0  0  0  0  0  0  0  0  0  0
   -1.7263   -0.7981    0.6804 C   0  0  0  0  0  0  0  0  0  0  0  0
   -3.0674   -0.8875    0.3192 C   0  0  0  0  0  0  0  0  0  0  0  0
   -3.8723    0.2332    0.3061 C   0  0  0  0  0  0  0  0  0  0  0  0
   -3.3110    1.4541    0.6626 C   0  0  0  0  0  0  0  0  0  0  0  0
   -4.0873    2.6053    0.6621 O   0  0  0  0  0  0  0  0  0  0  0  0
   -1.9748    1.5211    1.0186 C   0  0  0  0  0  0  0  0  0  0  0  0
   -1.1598    0.4087    1.0358 C   0  0  0  0  0  0  0  0  0  0  0  0
  1  2  1  0
  2  3  1  0
  2  4  1  0
  4  5  1  0
  5  6  2  0
  5  7  1  0
  7  8  1  0
  8  9  1  0
  9 10  1  0
 10 11  2  0
 11 12  1  0
 12 13  2  0
 13 14  1  0
 13 15  1  0
 15 16  2  0
 16 10  1  0
M  END

