
     RDKit          3D

 49 53  0  0  0  0  0  0  0  0999 V2000
   -4.4219    0.5314    2.4647 C   0  0  0  0  0  0  0  0  0  0  0  0
   -4.3758   -1.1150    2.4783 C   0  0  1  0  0  0  0  0  0  0  0  0
   -5.8892   -1.2843    1.8870 C   0  0  0  0  0  0  0  0  0  0  0  0
   -5.8295   -0.6032    0.6233 N   0  0  0  0  0  0  0  0  0  0  0  0
   -6.0833    0.6757    0.4048 N   0  0  0  0  0  0  0  0  0  0  0  0
   -5.9185    0.9336   -0.9101 C   0  0  0  0  0  0  0  0  0  0  0  0
   -5.5569   -0.2203   -1.4932 N   0  0  0  0  0  0  0  0  0  0  0  0
   -5.5114   -1.1359   -0.5351 N   0  0  0  0  0  0  0  0  0  0  0  0
   -3.6499   -1.2279    1.1025 N   0  0  0  0  0  0  0  0  0  0  0  0
   -2.3975   -0.5811    1.1214 C   0  0  0  0  0  0  0  0  0  0  0  0
   -1.9068    0.0470    2.1940 N   0  0  0  0  0  0  0  0  0  0  0  0
   -0.6989    0.6622    2.1879 C   0  0  0  0  0  0  0  0  0  0  0  0
    0.0108    0.6135    1.0179 C   0  0  0  0  0  0  0  0  0  0  0  0
    1.2403    1.2130    0.9357 C   0  0  0  0  0  0  0  0  0  0  0  0
    1.9521    1.1556   -0.2618 C   0  0  0  0  0  0  0  0  0  0  0  0
    3.1867    1.7682   -0.3143 O   0  0  0  0  0  0  0  0  0  0  0  0
    4.3258    1.0481   -0.5985 C   0  0  0  0  0  0  0  0  0  0  0  0
    5.1160    1.3343   -1.6879 C   0  0  0  0  0  0  0  0  0  0  0  0
    6.2557    0.6096   -1.9674 C   0  0  0  0  0  0  0  0  0  0  0  0
    6.6192   -0.4207   -1.1491 C   0  0  0  0  0  0  0  0  0  0  0  0
    7.7473   -1.1650   -1.3951 F   0  0  0  0  0  0  0  0  0  0  0  0
    5.8307   -0.7125   -0.0549 C   0  0  0  0  0  0  0  0  0  0  0  0
    4.7047    0.0104    0.2135 C   0  0  0  0  0  0  0  0  0  0  0  0
    3.9761   -0.3252    1.2995 F   0  0  0  0  0  0  0  0  0  0  0  0
    1.4279    0.5105   -1.3343 C   0  0  0  0  0  0  0  0  0  0  0  0
    2.0727    0.4565   -2.4249 O   0  0  0  0  0  0  0  0  0  0  0  0
    0.2304   -0.0775   -1.2658 N   0  0  0  0  0  0  0  0  0  0  0  0
   -0.3334   -0.7680   -2.4098 C   0  0  0  0  0  0  0  0  0  0  0  0
   -0.4566   -0.0254   -0.1195 C   0  0  0  0  0  0  0  0  0  0  0  0
   -1.6670   -0.6052   -0.0089 N   0  0  0  0  0  0  0  0  0  0  0  0
    1.3142   -0.8341    0.9594 O   0  0  0  0  0  0  0  0  0  0  0  0
    1.3356   -1.9298    0.3475 C   0  0  0  0  0  0  0  0  0  0  0  0
    2.6365   -2.5796    0.0599 C   0  0  0  0  0  0  0  0  0  0  0  0
    3.7744   -1.7608    0.5732 C   0  0  0  0  0  0  0  0  0  0  0  0
    3.7623   -0.4089   -0.0890 C   0  0  0  0  0  0  0  0  0  0  0  0
    4.6680    0.5865    0.1594 C   0  0  0  0  0  0  0  0  0  0  0  0
    4.3553    1.6435   -0.6045 N   0  0  0  0  0  0  0  0  0  0  0  0
    3.2692    1.2918   -1.3100 C   0  0  0  0  0  0  0  0  0  0  0  0
    2.8998    0.0429   -1.0033 N   0  0  0  0  0  0  0  0  0  0  0  0
    0.0970   -2.4975   -0.0426 N   0  0  0  0  0  0  0  0  0  0  0  0
   -1.1194   -1.7826    0.2864 C   0  0  0  0  0  0  0  0  0  0  0  0
   -1.0308   -0.4307   -0.3942 C   0  0  0  0  0  0  0  0  0  0  0  0
   -2.2407    0.3871   -0.1169 C   0  0  0  0  0  0  0  0  0  0  0  0
   -2.2816    1.2315    0.9910 C   0  0  0  0  0  0  0  0  0  0  0  0
   -3.4523    1.9458    1.1558 C   0  0  0  0  0  0  0  0  0  0  0  0
   -4.5252    1.8573    0.3074 C   0  0  0  0  0  0  0  0  0  0  0  0
   -5.6977    2.5786    0.4805 O   0  0  0  0  0  0  0  0  0  0  0  0
   -4.4580    1.0173   -0.7767 C   0  0  0  0  0  0  0  0  0  0  0  0
   -3.3068    0.2819   -0.9831 C   0  0  0  0  0  0  0  0  0  0  0  0
  2  1  1  1
  2  3  1  0
  3  4  1  0
  4  5  1  0
  5  6  2  0
  6  7  1  0
  7  8  2  0
  2  9  1  0
  9 10  1  0
 10 11  2  0
 11 12  1  0
 12 13  2  0
 13 14  1  0
 14 15  2  0
 15 16  1  0
 16 17  1  0
 17 18  2  0
 18 19  1  0
 19 20  2  0
 20 21  1  0
 20 22  1  0
 22 23  2  0
 23 24  1  0
 15 25  1  0
 25 26  2  0
 25 27  1  0
 27 28  1  0
 27 29  1  0
 29 30  2  0
 31 32  2  0
 32 33  1  0
 33 34  1  0
 34 35  1  0
 35 36  2  0
 36 37  1  0
 37 38  1  0
 38 39  2  0
 32 40  1  0
 40 41  1  0
 41 42  1  0
 42 43  1  0
 43 44  2  0
 44 45  1  0
 45 46  2  0
 46 47  1  0
 46 48  1  0
 48 49  2  0
  8  4  1  0
 30 10  1  0
 39 35  1  0
 49 43  1  0
 29 13  1  0
 23 17  1  0
M  END

