
     RDKit          3D

 42 44  0  0  0  0  0  0  0  0999 V2000
   -5.0283    0.1971    0.0744 C   0  0  0  0  0  0  0  0  0  0  0  0
   -3.5729    0.4768    0.2161 C   0  0  0  0  0  0  0  0  0  0  0  0
   -3.0772    1.3527   -0.5314 O   0  0  0  0  0  0  0  0  0  0  0  0
   -2.7756   -0.2149    1.1550 N   0  0  0  0  0  0  0  0  0  0  0  0
   -1.3615    0.1347    1.2134 C   0  0  0  0  0  0  0  0  0  0  0  0
   -0.7535   -0.1389   -0.1435 C   0  0  0  0  0  0  0  0  0  0  0  0
    0.7114    0.2317   -0.0559 C   0  0  0  0  0  0  0  0  0  0  0  0
    1.4112   -0.5950    1.0045 C   0  0  0  0  0  0  0  0  0  0  0  0
    2.7887   -0.2228    1.0629 N   0  0  0  0  0  0  0  0  0  0  0  0
    3.6073   -0.3680   -0.0858 C   0  0  0  0  0  0  0  0  0  0  0  0
    4.9941   -0.0137   -0.0927 N   0  0  0  0  0  0  0  0  0  0  0  0
    3.0565   -0.8396   -1.1519 N   0  0  0  0  0  4  0  0  0  0  0  0
    4.5020   -0.5016   -2.9293 C   0  0  0  0  0  0  0  0  0  0  0  0
    5.2918    0.0766   -1.5907 C   0  0  2  0  0  0  0  0  0  0  0  0
    4.8865   -1.2224   -0.6538 C   0  0  0  0  0  0  0  0  0  0  0  0
    5.5277   -0.8603    0.6067 N   0  0  0  0  0  0  0  0  0  0  0  0
    4.9457   -0.1631    1.5679 N   0  0  0  0  0  0  0  0  0  0  0  0
    5.7898    0.0085    2.6009 C   0  0  0  0  0  0  0  0  0  0  0  0
    6.9262   -0.6216    2.2250 N   0  0  0  0  0  0  0  0  0  0  0  0
    6.7441   -1.1369    1.0205 N   0  0  0  0  0  0  0  0  0  0  0  0
    4.0951    0.9697   -1.1017 N   0  0  0  0  0  0  0  0  0  0  0  0
    2.8655    0.3834   -0.8493 C   0  0  0  0  0  0  0  0  0  0  0  0
    2.5796   -0.9263   -0.9856 N   0  0  0  0  0  0  0  0  0  0  0  0
    1.3955   -1.4561   -0.7368 C   0  0  0  0  0  0  0  0  0  0  0  0
    0.3486   -0.6424   -0.3036 C   0  0  0  0  0  0  0  0  0  0  0  0
   -0.8791   -1.1770   -0.0439 C   0  0  0  0  0  0  0  0  0  0  0  0
   -1.9465   -0.3233    0.4011 C   0  0  0  0  0  0  0  0  0  0  0  0
   -3.1203   -0.8844    0.6426 O   0  0  0  0  0  0  0  0  0  0  0  0
   -4.3973   -0.9350    0.2713 C   0  0  0  0  0  0  0  0  0  0  0  0
   -4.8357   -2.1965   -0.2656 C   0  0  0  0  0  0  0  0  0  0  0  0
   -6.0981   -2.4078   -0.6856 C   0  0  0  0  0  0  0  0  0  0  0  0
   -7.0719   -1.4385   -0.6369 C   0  0  0  0  0  0  0  0  0  0  0  0
   -8.3362   -1.6820   -1.0714 F   0  0  0  0  0  0  0  0  0  0  0  0
   -6.6889   -0.2271   -0.1308 C   0  0  0  0  0  0  0  0  0  0  0  0
   -5.3816    0.0136    0.3120 C   0  0  0  0  0  0  0  0  0  0  0  0
   -5.1167    1.2548    0.8295 F   0  0  0  0  0  0  0  0  0  0  0  0
   -1.6151    0.9796    0.5249 C   0  0  0  0  0  0  0  0  0  0  0  0
   -2.4429    1.8413    0.9078 O   0  0  0  0  0  0  0  0  0  0  0  0
   -0.3659    1.4963    0.2555 N   0  0  0  0  0  0  0  0  0  0  0  0
   -0.0871    2.9150    0.4126 C   0  0  0  0  0  0  0  0  0  0  0  0
    0.6269    0.7001   -0.1596 C   0  0  0  0  0  0  0  0  0  0  0  0
    1.8583    1.1593   -0.4337 N   0  0  0  0  0  0  0  0  0  0  0  0
  1  2  1  0
  2  3  2  0
  2  4  1  0
  4  5  1  0
  5  6  1  0
  6  7  1  0
  7  8  1  0
  8  9  1  0
  9 10  1  0
 10 11  1  0
 10 12  2  0
 14 13  1  6
 14 15  1  0
 15 16  1  0
 16 17  1  0
 17 18  2  0
 18 19  1  0
 19 20  2  0
 14 21  1  0
 21 22  1  0
 22 23  2  0
 23 24  1  0
 24 25  2  0
 25 26  1  0
 26 27  2  0
 27 28  1  0
 28 29  1  0
 29 30  2  0
 30 31  1  0
 31 32  2  0
 32 33  1  0
 32 34  1  0
 34 35  2  0
 35 36  1  0
 27 37  1  0
 37 38  2  0
 37 39  1  0
 39 40  1  0
 39 41  1  0
 41 42  2  0
 20 16  1  0
 42 22  1  0
 41 25  1  0
 35 29  1  0
M  CHG  1  12   1
M  END

