
     RDKit          3D

 13 12  0  0  0  0  0  0  0  0999 V2000
   -3.5841   -2.3572   -0.3121 C   0  0  0  0  0  0  0  0  0  0  0  0
   -3.2868   -0.8911   -0.4907 C   0  0  0  0  0  0  0  0  0  0  0  0
   -4.4272   -0.0134   -0.0199 C   0  0  0  0  0  0  0  0  0  0  0  0
   -1.9773   -0.4820    0.1545 C   0  0  0  0  0  0  0  0  0  0  0  0
   -1.8078    1.0009   -0.1006 C   0  0  0  0  0  0  0  0  0  0  0  0
   -0.6111    1.5419    0.4495 N   0  0  0  0  0  0  0  0  0  0  0  0
    0.6624    1.0472    0.0391 C   0  0  0  0  0  0  0  0  0  0  0  0
    0.7656    0.1308   -0.8094 O   0  0  0  0  0  0  0  0  0  0  0  0
    1.8487    1.6721    0.6668 C   0  0  0  0  0  0  0  0  0  0  0  0
    3.0851    1.0075    0.1274 C   0  0  0  0  0  0  0  0  0  0  0  0
    3.0447   -0.4316    0.4613 C   0  0  0  0  0  0  0  0  0  0  0  0
    4.1420   -1.2322   -0.0157 N   0  0  0  0  0  0  0  0  0  0  0  0
    2.1459   -0.9928    1.1144 O   0  0  0  0  0  0  0  0  0  0  0  0
  1  2  1  0
  2  3  1  0
  2  4  1  0
  4  5  1  0
  5  6  1  0
  6  7  1  0
  7  8  2  0
  7  9  1  0
  9 10  1  0
 10 11  1  0
 11 12  1  0
 11 13  2  0
M  END

