
     RDKit          3D

 45 47  0  0  0  0  0  0  0  0999 V2000
    3.6654   -2.8664    0.8559 C   0  0  0  0  0  0  0  0  0  0  0  0
    4.2078   -2.6559   -0.6873 C   0  0  2  0  0  0  0  0  0  0  0  0
    5.7488   -2.3477   -0.2038 C   0  0  0  0  0  0  0  0  0  0  0  0
    5.7661   -1.2214    0.6346 N   0  0  0  0  0  0  0  0  0  0  0  0
    5.6442   -1.1392    1.9359 N   0  0  0  0  0  0  0  0  0  0  0  0
    5.7228    0.1704    2.3213 C   0  0  0  0  0  0  0  0  0  0  0  0
    5.8972    0.8729    1.1961 N   0  0  0  0  0  0  0  0  0  0  0  0
    5.9200    0.0139    0.1936 N   0  0  0  0  0  0  0  0  0  0  0  0
    3.7447   -1.1509   -0.7598 N   0  0  0  0  0  0  0  0  0  0  0  0
    2.3616   -0.9443   -0.5797 C   0  0  0  0  0  0  0  0  0  0  0  0
    1.4556   -1.9095   -0.3600 N   0  0  0  0  0  0  0  0  0  0  0  0
    0.1417   -1.6268   -0.1969 C   0  0  0  0  0  0  0  0  0  0  0  0
   -0.3063   -0.3342   -0.2518 C   0  0  0  0  0  0  0  0  0  0  0  0
   -1.6252    0.0293   -0.0955 C   0  0  0  0  0  0  0  0  0  0  0  0
   -1.9737    1.3606   -0.1684 C   0  0  0  0  0  0  0  0  0  0  0  0
   -3.2744    1.8213   -0.0236 O   0  0  0  0  0  0  0  0  0  0  0  0
   -4.2768    0.8752    0.2082 C   0  0  0  0  0  0  0  0  0  0  0  0
   -3.9976   -0.4743    0.2928 C   0  0  0  0  0  0  0  0  0  0  0  0
   -4.9908   -1.4046    0.5218 C   0  0  0  0  0  0  0  0  0  0  0  0
   -6.3089   -1.0242    0.6765 C   0  0  0  0  0  0  0  0  0  0  0  0
   -7.2772   -1.9557    0.9021 F   0  0  0  0  0  0  0  0  0  0  0  0
   -6.5934    0.3239    0.5928 C   0  0  0  0  0  0  0  0  0  0  0  0
   -5.5977    1.2524    0.3636 C   0  0  0  0  0  0  0  0  0  0  0  0
   -5.8759    2.5923    0.2798 F   0  0  0  0  0  0  0  0  0  0  0  0
   -0.9896    2.3036   -0.3973 C   0  0  0  0  0  0  0  0  0  0  0  0
   -1.2922    3.5176   -0.4659 O   0  0  0  0  0  0  0  0  0  0  0  0
    0.2875    1.9612   -0.5496 N   0  0  0  0  0  0  0  0  0  0  0  0
    1.3003    2.9931   -0.7908 C   0  0  0  0  0  0  0  0  0  0  0  0
    0.6154    0.6547   -0.4760 C   0  0  0  0  0  0  0  0  0  0  0  0
    1.9008    0.3126   -0.6295 N   0  0  0  0  0  0  0  0  0  0  0  0
    4.1700    1.1233    0.4904 N   0  0  0  0  0  0  0  0  0  0  0  0
    3.6180   -0.0741    0.0135 C   0  0  0  0  0  0  0  0  0  0  0  0
    3.8700   -0.4479   -1.1556 O   0  0  0  0  0  0  0  0  0  0  0  0
    2.7450   -0.8772    0.9022 C   0  0  0  0  0  0  0  0  0  0  0  0
    2.2865   -2.1025    0.1587 C   0  0  0  0  0  0  0  0  0  0  0  0
    1.5084   -1.7351   -1.0854 C   0  0  0  0  0  0  0  0  0  0  0  0
    0.3158   -0.9382   -0.6647 C   0  0  0  0  0  0  0  0  0  0  0  0
    0.0961   -0.6776    0.5467 O   0  0  0  0  0  0  0  0  0  0  0  0
   -0.6249   -0.4381   -1.6111 N   0  0  0  0  0  0  0  0  0  0  0  0
   -1.7602    0.3242   -1.1731 C   0  0  0  0  0  0  0  0  0  0  0  0
   -2.6215   -0.5125   -0.2268 C   0  0  0  0  0  0  0  0  0  0  0  0
   -3.8137    0.2461    0.2513 C   0  0  0  0  0  0  0  0  0  0  0  0
   -3.4068    1.4733    0.9852 C   0  0  0  0  0  0  0  0  0  0  0  0
   -2.0672    1.7495    1.1292 O   0  0  0  0  0  1  0  0  0  0  0  0
   -4.3155    2.2005    1.4395 O   0  0  0  0  0  0  0  0  0  0  0  0
  2  1  1  1
  2  3  1  0
  3  4  1  0
  4  5  1  0
  5  6  2  0
  6  7  1  0
  7  8  2  0
  2  9  1  0
  9 10  1  0
 10 11  2  0
 11 12  1  0
 12 13  2  0
 13 14  1  0
 14 15  2  0
 15 16  1  0
 16 17  1  0
 17 18  2  0
 18 19  1  0
 19 20  2  0
 20 21  1  0
 20 22  1  0
 22 23  2  0
 23 24  1  0
 15 25  1  0
 25 26  2  0
 25 27  1  0
 27 28  1  0
 27 29  1  0
 29 30  2  0
 31 32  1  0
 32 33  2  0
 32 34  1  0
 34 35  1  0
 35 36  1  0
 36 37  1  0
 37 38  2  0
 37 39  1  0
 39 40  1  0
 40 41  1  0
 41 42  1  0
 42 43  1  0
 43 44  1  0
 43 45  2  0
  8  4  1  0
 30 10  1  0
 29 13  1  0
 23 17  1  0
M  RAD  1  44   2
M  END

