
     RDKit          3D

 46 48  0  0  0  0  0  0  0  0999 V2000
    2.9380    1.8187   -1.1313 C   0  0  0  0  0  0  0  0  0  0  0  0
    4.1597    1.1247   -0.5965 C   0  0  0  0  0  0  0  0  0  0  0  0
    3.6831    0.4294    0.8016 C   0  0  2  0  0  0  0  0  0  0  0  0
    5.1967   -0.1926    1.0984 C   0  0  0  0  0  0  0  0  0  0  0  0
    3.1839   -0.9514    0.0894 C   0  0  0  0  0  0  0  0  0  0  0  0
    2.1331   -0.6109   -0.8337 N   0  0  0  0  0  0  0  0  0  0  0  0
    0.9510   -0.0115   -0.3143 C   0  0  0  0  0  0  0  0  0  0  0  0
    0.9084    0.1787    0.9186 O   0  0  0  0  0  0  0  0  0  0  0  0
   -0.1791    0.3635   -1.2436 C   0  0  0  0  0  0  0  0  0  0  0  0
   -1.2422    0.9619   -0.3486 C   0  0  0  0  0  0  0  0  0  0  0  0
   -1.6331   -0.1137    0.6472 C   0  0  0  0  0  0  0  0  0  0  0  0
   -2.1604   -1.2831   -0.1523 C   0  0  0  0  0  0  0  0  0  0  0  0
   -3.3147   -0.9152   -0.9494 N   0  0  0  0  0  0  0  0  0  0  0  0
   -4.4869   -0.4261   -0.3540 C   0  0  0  0  0  0  0  0  0  0  0  0
   -5.6286   -0.0619   -1.1393 N   0  0  0  0  0  0  0  0  0  0  0  0
   -4.5090   -0.3105    0.9512 N   0  0  0  0  0  4  0  0  0  0  0  0
    5.8858   -0.6848   -0.9930 C   0  0  0  0  0  0  0  0  0  0  0  0
    4.4710    0.2136   -0.8740 C   0  0  2  0  0  0  0  0  0  0  0  0
    4.7216    0.4692    0.7661 C   0  0  0  0  0  0  0  0  0  0  0  0
    6.0032    1.1616    0.7027 N   0  0  0  0  0  0  0  0  0  0  0  0
    7.1736    0.5723    0.7388 N   0  0  0  0  0  0  0  0  0  0  0  0
    8.1330    1.5219    0.6581 C   0  0  0  0  0  0  0  0  0  0  0  0
    7.4570    2.6844    0.5739 N   0  0  0  0  0  0  0  0  0  0  0  0
    6.1577    2.4553    0.6018 N   0  0  0  0  0  0  0  0  0  0  0  0
    3.5986   -1.0824   -0.6060 N   0  0  0  0  0  0  0  0  0  0  0  0
    2.2412   -0.7196   -0.4393 C   0  0  0  0  0  0  0  0  0  0  0  0
    1.7441    0.5117   -0.4938 N   0  0  0  0  0  0  0  0  0  0  0  0
    0.4292    0.7759   -0.3231 C   0  0  0  0  0  0  0  0  0  0  0  0
   -0.4252   -0.2682   -0.0843 C   0  0  0  0  0  0  0  0  0  0  0  0
   -1.7667   -0.0943    0.0999 C   0  0  0  0  0  0  0  0  0  0  0  0
   -2.5547   -1.1926    0.3343 C   0  0  0  0  0  0  0  0  0  0  0  0
   -3.9044   -1.0367    0.5216 O   0  0  0  0  0  0  0  0  0  0  0  0
   -4.5907    0.1494    0.5005 C   0  0  0  0  0  0  0  0  0  0  0  0
   -3.9162    1.3380    0.2737 C   0  0  0  0  0  0  0  0  0  0  0  0
   -4.6713    2.4894    0.2666 C   0  0  0  0  0  0  0  0  0  0  0  0
   -6.0201    2.4781    0.4713 C   0  0  0  0  0  0  0  0  0  0  0  0
   -6.7545    3.6142    0.4626 F   0  0  0  0  0  0  0  0  0  0  0  0
   -6.6899    1.2955    0.6968 C   0  0  0  0  0  0  0  0  0  0  0  0
   -5.9458    0.1417    0.7058 C   0  0  0  0  0  0  0  0  0  0  0  0
   -6.5650   -1.0512    0.9247 F   0  0  0  0  0  0  0  0  0  0  0  0
   -2.0247   -2.4603    0.3877 C   0  0  0  0  0  0  0  0  0  0  0  0
   -2.7765   -3.4272    0.6028 O   0  0  0  0  0  0  0  0  0  0  0  0
   -0.7143   -2.6106    0.2057 N   0  0  0  0  0  0  0  0  0  0  0  0
   -0.1555   -3.9444    0.2616 C   0  0  0  0  0  0  0  0  0  0  0  0
    0.0785   -1.5515   -0.0254 C   0  0  0  0  0  0  0  0  0  0  0  0
    1.3810   -1.7479   -0.2013 N   0  0  0  0  0  0  0  0  0  0  0  0
  1  2  1  0
  2  3  1  0
  3  4  1  1
  3  5  1  0
  5  6  1  0
  6  7  1  0
  7  8  2  0
  7  9  1  0
  9 10  1  0
 10 11  1  0
 11 12  1  0
 12 13  1  0
 13 14  1  0
 14 15  1  0
 14 16  2  0
 18 17  1  6
 18 19  1  0
 19 20  1  0
 20 21  1  0
 21 22  2  0
 22 23  1  0
 23 24  2  0
 18 25  1  0
 25 26  1  0
 26 27  2  0
 27 28  1  0
 28 29  2  0
 29 30  1  0
 30 31  2  0
 31 32  1  0
 32 33  1  0
 33 34  2  0
 34 35  1  0
 35 36  2  0
 36 37  1  0
 36 38  1  0
 38 39  2  0
 39 40  1  0
 31 41  1  0
 41 42  2  0
 41 43  1  0
 43 44  1  0
 43 45  1  0
 45 46  2  0
 24 20  1  0
 46 26  1  0
 45 29  1  0
 39 33  1  0
M  CHG  1  16   1
M  END

