
     RDKit          3D

 44 46  0  0  0  0  0  0  0  0999 V2000
    5.0127    0.6960   -0.2606 C   0  0  0  0  0  0  0  0  0  0  0  0
    4.0913    0.0415    0.7406 C   0  0  0  0  0  0  0  0  0  0  0  0
    4.4180    0.3980    2.1544 C   0  0  0  0  0  0  0  0  0  0  0  0
    2.6338    0.2650    0.3951 C   0  0  0  0  0  0  0  0  0  0  0  0
    2.3616   -0.3167   -0.9531 C   0  0  0  0  0  0  0  0  0  0  0  0
    0.9870   -0.1107   -1.2888 N   0  0  0  0  0  0  0  0  0  0  0  0
   -0.0363   -0.6557   -0.4641 C   0  0  0  0  0  0  0  0  0  0  0  0
    0.2803   -1.3136    0.5525 O   0  0  0  0  0  0  0  0  0  0  0  0
   -1.4612   -0.4201   -0.8459 C   0  0  0  0  0  0  0  0  0  0  0  0
   -2.3790   -1.0835    0.1617 C   0  0  0  0  0  0  0  0  0  0  0  0
   -3.7954   -0.8184   -0.2654 C   0  0  0  0  0  0  0  0  0  0  0  0
   -4.0042    0.6482   -0.2871 C   0  0  0  0  0  0  0  0  0  0  0  0
   -2.9806    1.5156    0.0521 O   0  0  0  0  0  1  0  0  0  0  0  0
   -5.1280    1.1544   -0.6173 O   0  0  0  0  0  0  0  0  0  0  0  0
   -6.1311   -1.2275    1.2098 C   0  0  0  0  0  0  0  0  0  0  0  0
   -4.4830   -1.2365    1.3985 C   0  0  2  0  0  0  0  0  0  0  0  0
   -4.4015    0.3791    1.7271 C   0  0  0  0  0  0  0  0  0  0  0  0
   -4.9208    1.0906    0.6206 N   0  0  0  0  0  0  0  0  0  0  0  0
   -6.1498    1.4967    0.3353 N   0  0  0  0  0  0  0  0  0  0  0  0
   -6.1606    2.1361   -0.8281 C   0  0  0  0  0  0  0  0  0  0  0  0
   -4.9069    2.1335   -1.2887 N   0  0  0  0  0  0  0  0  0  0  0  0
   -4.1740    1.5029   -0.4092 N   0  0  0  0  0  0  0  0  0  0  0  0
   -4.2025   -1.0756   -0.1497 N   0  0  0  0  0  0  0  0  0  0  0  0
   -2.8201   -1.0330   -0.4795 C   0  0  0  0  0  0  0  0  0  0  0  0
   -2.4817   -0.8982   -1.7699 N   0  0  0  0  0  0  0  0  0  0  0  0
   -1.2000   -0.8471   -2.1884 C   0  0  0  0  0  0  0  0  0  0  0  0
   -0.1741   -0.9350   -1.2717 C   0  0  0  0  0  0  0  0  0  0  0  0
    1.1506   -0.8905   -1.6233 C   0  0  0  0  0  0  0  0  0  0  0  0
    2.0945   -0.9875   -0.6223 C   0  0  0  0  0  0  0  0  0  0  0  0
    3.4689   -0.9486   -0.9203 O   0  0  0  0  0  0  0  0  0  0  0  0
    4.2631    0.0584   -0.3836 C   0  0  0  0  0  0  0  0  0  0  0  0
    3.6990    1.0121    0.4288 C   0  0  0  0  0  0  0  0  0  0  0  0
    4.4934    2.0024    0.9534 C   0  0  0  0  0  0  0  0  0  0  0  0
    5.8376    2.0355    0.6666 C   0  0  0  0  0  0  0  0  0  0  0  0
    6.6453    3.0137    1.1795 F   0  0  0  0  0  0  0  0  0  0  0  0
    6.3863    1.0687   -0.1516 C   0  0  0  0  0  0  0  0  0  0  0  0
    5.6239    0.0597   -0.6970 C   0  0  0  0  0  0  0  0  0  0  0  0
    6.1614   -0.8949   -1.5040 F   0  0  0  0  0  0  0  0  0  0  0  0
    1.7053   -1.1245    0.6842 C   0  0  0  0  0  0  0  0  0  0  0  0
    2.5923   -1.2133    1.5952 O   0  0  0  0  0  0  0  0  0  0  0  0
    0.4008   -1.1684    1.0323 N   0  0  0  0  0  0  0  0  0  0  0  0
    0.0321   -1.3155    2.4394 C   0  0  0  0  0  0  0  0  0  0  0  0
   -0.5226   -1.0741    0.0594 C   0  0  0  0  0  0  0  0  0  0  0  0
   -1.8256   -1.1192    0.4193 N   0  0  0  0  0  0  0  0  0  0  0  0
  1  2  1  0
  2  3  1  0
  2  4  1  0
  4  5  1  0
  5  6  1  0
  6  7  1  0
  7  8  2  0
  7  9  1  0
  9 10  1  0
 10 11  1  0
 11 12  1  0
 12 13  1  0
 12 14  2  0
 16 15  1  6
 16 17  1  0
 17 18  1  0
 18 19  1  0
 19 20  2  0
 20 21  1  0
 21 22  2  0
 16 23  1  0
 23 24  1  0
 24 25  2  0
 25 26  1  0
 26 27  2  0
 27 28  1  0
 28 29  2  0
 29 30  1  0
 30 31  1  0
 31 32  2  0
 32 33  1  0
 33 34  2  0
 34 35  1  0
 34 36  1  0
 36 37  2  0
 37 38  1  0
 29 39  1  0
 39 40  2  0
 39 41  1  0
 41 42  1  0
 41 43  1  0
 43 44  2  0
 22 18  1  0
 44 24  1  0
 43 27  1  0
 37 31  1  0
M  RAD  1  13   2
M  END

