
     RDKit          3D

 15 14  0  0  0  0  0  0  0  0999 V2000
   -3.6835    0.0056   -1.5287 C   0  0  0  0  0  0  0  0  0  0  0  0
   -3.0120    1.5370   -1.5544 C   0  0  1  0  0  0  0  0  0  0  0  0
   -4.4227    2.1315   -1.7876 O   0  0  0  0  0  0  0  0  0  0  0  0
   -3.1169    1.7156    0.0591 C   0  0  0  0  0  0  0  0  0  0  0  0
   -1.9167    1.3264    0.6774 N   0  0  0  0  0  0  0  0  0  0  0  0
   -1.2792    0.0871    0.6818 C   0  0  0  0  0  0  0  0  0  0  0  0
   -1.7978   -0.8577    0.0699 O   0  0  0  0  0  0  0  0  0  0  0  0
    0.0182   -0.1585    1.3998 C   0  0  0  0  0  0  0  0  0  0  0  0
    0.4563   -1.5949    1.2210 C   0  0  0  0  0  0  0  0  0  0  0  0
    1.7703   -1.6835    1.9981 C   0  0  0  0  0  0  0  0  0  0  0  0
    2.6959   -0.6728    1.3374 C   0  0  0  0  0  0  0  0  0  0  0  0
    2.8103   -1.1163   -0.0507 N   0  0  0  0  0  0  0  0  0  0  0  0
    3.5968   -0.4278   -1.0041 C   0  0  0  0  0  0  0  0  0  0  0  0
    3.6480   -0.9275   -2.3176 N   0  0  0  0  0  0  0  0  0  0  0  0
    4.2329    0.6359   -0.6102 N   0  0  0  0  0  4  0  0  0  0  0  0
  2  1  1  1
  2  3  1  0
  2  4  1  0
  4  5  1  0
  5  6  1  0
  6  7  2  0
  6  8  1  0
  8  9  1  0
  9 10  1  0
 10 11  1  0
 11 12  1  0
 12 13  1  0
 13 14  1  0
 13 15  2  0
M  CHG  1  15   1
M  END

