
     RDKit          3D

 11 10  0  0  0  0  0  0  0  0999 V2000
   -2.0613    2.3199   -0.4606 C   0  0  0  0  0  0  0  0  0  0  0  0
   -1.8987    1.2898    0.6474 C   0  0  0  0  0  0  0  0  0  0  0  0
   -2.4808   -0.0793    0.0015 C   0  0  2  0  0  0  0  0  0  0  0  0
   -2.2109   -0.9865    1.3139 C   0  0  0  0  0  0  0  0  0  0  0  0
   -1.1207   -0.4554   -0.7733 C   0  0  0  0  0  0  0  0  0  0  0  0
   -0.0198   -0.6047    0.1650 C   0  0  0  0  0  0  0  0  0  0  0  0
   -0.0432   -0.4522    1.4089 O   0  0  0  0  0  0  0  0  0  0  0  0
    1.2338   -0.9669   -0.3938 N   0  0  0  0  0  0  0  0  0  0  0  0
    2.4329   -1.1645    0.3328 C   0  0  0  0  0  0  0  0  0  0  0  0
    2.9390   -0.0129    1.1032 C   0  0  0  0  0  0  0  0  0  0  0  0
    3.2299    1.1126    0.3547 O   0  0  0  0  0  0  0  0  0  0  0  0
  1  2  1  0
  2  3  1  0
  3  4  1  1
  3  5  1  0
  5  6  1  0
  6  7  2  0
  6  8  1  0
  8  9  1  0
  9 10  1  0
 10 11  1  0
M  END

