
     RDKit          3D

 38 40  0  0  0  0  0  0  0  0999 V2000
    3.1387   -0.3886    0.3211 C   0  0  0  0  0  0  0  0  0  0  0  0
    2.0655    0.4296   -0.1948 N   0  0  0  0  0  0  0  0  0  0  0  0
    0.7180    0.0257   -0.0117 C   0  0  0  0  0  0  0  0  0  0  0  0
    0.5329   -1.0531    0.6074 O   0  0  0  0  0  0  0  0  0  0  0  0
   -0.3532    0.8658   -0.5403 C   0  0  0  0  0  0  0  0  0  0  0  0
   -1.7250    0.3859   -0.3141 C   0  0  0  0  0  0  0  0  0  0  0  0
   -2.0656   -0.9393   -0.8888 C   0  0  0  0  0  0  0  0  0  0  0  0
   -2.3114    0.6739    1.0212 C   0  0  0  0  0  0  0  0  0  0  0  0
   -6.0657   -1.2832    0.9836 C   0  0  0  0  0  0  0  0  0  0  0  0
   -4.4367   -1.1744    1.2676 C   0  0  2  0  0  0  0  0  0  0  0  0
   -4.4214    0.4736    1.1944 C   0  0  0  0  0  0  0  0  0  0  0  0
   -4.8763    0.8857   -0.0713 N   0  0  0  0  0  0  0  0  0  0  0  0
   -4.0507    1.0716   -1.1160 N   0  0  0  0  0  0  0  0  0  0  0  0
   -4.7379    1.4580   -2.1829 C   0  0  0  0  0  0  0  0  0  0  0  0
   -6.0218    1.5188   -1.8109 N   0  0  0  0  0  0  0  0  0  0  0  0
   -6.0682    1.1748   -0.5586 N   0  0  0  0  0  0  0  0  0  0  0  0
   -4.0515   -1.3829   -0.2518 N   0  0  0  0  0  0  0  0  0  0  0  0
   -2.6293   -1.3579   -0.4775 C   0  0  0  0  0  0  0  0  0  0  0  0
   -2.1781   -1.5244   -1.7314 N   0  0  0  0  0  0  0  0  0  0  0  0
   -0.8471   -1.5087   -1.9945 C   0  0  0  0  0  0  0  0  0  0  0  0
    0.0724   -1.3218   -0.9840 C   0  0  0  0  0  0  0  0  0  0  0  0
    1.4520   -1.3006   -1.2235 C   0  0  0  0  0  0  0  0  0  0  0  0
    2.3384   -1.1109   -0.1852 C   0  0  0  0  0  0  0  0  0  0  0  0
    3.7126   -1.0812   -0.3656 O   0  0  0  0  0  0  0  0  0  0  0  0
    4.4053    0.0612   -0.0110 C   0  0  0  0  0  0  0  0  0  0  0  0
    5.3915    0.0579    0.9275 C   0  0  0  0  0  0  0  0  0  0  0  0
    6.0798    1.2111    1.2750 C   0  0  0  0  0  0  0  0  0  0  0  0
    5.7552    2.3831    0.6543 C   0  0  0  0  0  0  0  0  0  0  0  0
    6.3764    3.5626    0.9310 F   0  0  0  0  0  0  0  0  0  0  0  0
    4.7648    2.4155   -0.2959 C   0  0  0  0  0  0  0  0  0  0  0  0
    4.0887    1.2469   -0.6277 C   0  0  0  0  0  0  0  0  0  0  0  0
    3.1072    1.3269   -1.5823 F   0  0  0  0  0  0  0  0  0  0  0  0
    1.8249   -0.9442    1.0873 C   0  0  0  0  0  0  0  0  0  0  0  0
    2.6441   -0.7710    2.0328 O   0  0  0  0  0  0  0  0  0  0  0  0
    0.4909   -0.9689    1.2903 N   0  0  0  0  0  0  0  0  0  0  0  0
    0.0186   -0.7883    2.6453 C   0  0  0  0  0  0  0  0  0  0  0  0
   -0.4033   -1.1509    0.3061 C   0  0  0  0  0  0  0  0  0  0  0  0
   -1.7350   -1.1784    0.4898 N   0  0  0  0  0  0  0  0  0  0  0  0
  1  2  1  0
  2  3  1  0
  3  4  2  0
  3  5  1  0
  5  6  1  0
  6  7  1  0
  6  8  1  0
 10  9  1  6
 10 11  1  0
 11 12  1  0
 12 13  1  0
 13 14  2  0
 14 15  1  0
 15 16  2  0
 10 17  1  0
 17 18  1  0
 18 19  2  0
 19 20  1  0
 20 21  2  0
 21 22  1  0
 22 23  2  0
 23 24  1  0
 24 25  1  0
 25 26  2  0
 26 27  1  0
 27 28  2  0
 28 29  1  0
 28 30  1  0
 30 31  2  0
 31 32  1  0
 23 33  1  0
 33 34  2  0
 33 35  1  0
 35 36  1  0
 35 37  1  0
 37 38  2  0
 16 12  1  0
 38 18  1  0
 37 21  1  0
 31 25  1  0
M  END

