
     RDKit          3D

 39 41  0  0  0  0  0  0  0  0999 V2000
   -2.8460    1.2809    0.2862 C   0  0  0  0  0  0  0  0  0  0  0  0
   -2.1128    0.0449   -0.0914 C   0  0  0  0  0  0  0  0  0  0  0  0
   -2.6939   -1.0612   -0.1619 O   0  0  0  0  0  0  0  0  0  0  0  0
   -0.7368    0.0985   -0.3791 N   0  0  0  0  0  0  0  0  0  0  0  0
    0.0489   -1.0664   -0.7555 C   0  0  0  0  0  0  0  0  0  0  0  0
    1.4760   -0.6856   -0.9962 C   0  0  0  0  0  0  0  0  0  0  0  0
    2.0638   -0.0897    0.2600 C   0  0  0  0  0  0  0  0  0  0  0  0
    1.3034    1.1558    0.6957 C   0  0  0  0  0  0  0  0  0  0  0  0
    3.4973    0.3227    0.0448 C   0  0  0  0  0  0  0  0  0  0  0  0
    3.4406   -4.9109    1.5939 C   0  0  0  0  0  0  0  0  0  0  0  0
    2.2527   -4.3626    0.5743 C   0  0  2  0  0  0  0  0  0  0  0  0
    3.3188   -3.5649   -0.4109 C   0  0  0  0  0  0  0  0  0  0  0  0
    4.2086   -4.5878   -0.9076 N   0  0  0  0  0  0  0  0  0  0  0  0
    4.1454   -5.3428   -1.9634 N   0  0  0  0  0  0  0  0  0  0  0  0
    5.2267   -6.1381   -1.9754 C   0  0  0  0  0  0  0  0  0  0  0  0
    5.9483   -5.8544   -0.9097 N   0  0  0  0  0  0  0  0  0  0  0  0
    5.3199   -4.9134   -0.2716 N   0  0  0  0  0  0  0  0  0  0  0  0
    1.9801   -3.0736    1.4485 N   0  0  0  0  0  0  0  0  0  0  0  0
    0.9885   -2.2080    0.9769 C   0  0  0  0  0  0  0  0  0  0  0  0
    0.3386   -2.4894   -0.1418 N   0  0  0  0  0  0  0  0  0  0  0  0
   -0.6300   -1.7128   -0.6661 C   0  0  0  0  0  0  0  0  0  0  0  0
   -0.9209   -0.5646    0.0510 C   0  0  0  0  0  0  0  0  0  0  0  0
   -1.9211    0.2520   -0.4762 C   0  0  0  0  0  0  0  0  0  0  0  0
   -2.2265    1.3914    0.2136 C   0  0  0  0  0  0  0  0  0  0  0  0
   -3.2125    2.2301   -0.2734 O   0  0  0  0  0  0  0  0  0  0  0  0
   -2.9957    3.5567   -0.6262 C   0  0  0  0  0  0  0  0  0  0  0  0
   -1.7707    4.1830   -0.5289 C   0  0  0  0  0  0  0  0  0  0  0  0
   -1.6042    5.5125   -0.8947 C   0  0  0  0  0  0  0  0  0  0  0  0
   -2.6680    6.2546   -1.3707 C   0  0  0  0  0  0  0  0  0  0  0  0
   -2.5819    7.5444   -1.7437 F   0  0  0  0  0  0  0  0  0  0  0  0
   -3.9084    5.6316   -1.4726 C   0  0  0  0  0  0  0  0  0  0  0  0
   -4.0468    4.3130   -1.1035 C   0  0  0  0  0  0  0  0  0  0  0  0
   -5.2643    3.7028   -1.2035 F   0  0  0  0  0  0  0  0  0  0  0  0
   -1.5522    1.6828    1.3736 C   0  0  0  0  0  0  0  0  0  0  0  0
   -1.8281    2.7192    2.0033 O   0  0  0  0  0  0  0  0  0  0  0  0
   -0.5798    0.8747    1.8724 N   0  0  0  0  0  0  0  0  0  0  0  0
    0.1094    1.2258    3.1087 C   0  0  0  0  0  0  0  0  0  0  0  0
   -0.2610   -0.2555    1.2092 C   0  0  0  0  0  0  0  0  0  0  0  0
    0.6945   -1.0959    1.6553 N   0  0  0  0  0  0  0  0  0  0  0  0
  1  2  1  0
  2  3  2  0
  2  4  1  0
  4  5  1  0
  5  6  1  0
  6  7  1  0
  7  8  1  0
  7  9  1  0
 11 10  1  1
 11 12  1  0
 12 13  1  0
 13 14  1  0
 14 15  2  0
 15 16  1  0
 16 17  2  0
 11 18  1  0
 18 19  1  0
 19 20  2  0
 20 21  1  0
 21 22  2  0
 22 23  1  0
 23 24  2  0
 24 25  1  0
 25 26  1  0
 26 27  2  0
 27 28  1  0
 28 29  2  0
 29 30  1  0
 29 31  1  0
 31 32  2  0
 32 33  1  0
 24 34  1  0
 34 35  2  0
 34 36  1  0
 36 37  1  0
 36 38  1  0
 38 39  2  0
 17 13  1  0
 39 19  1  0
 38 22  1  0
 32 26  1  0
M  END

