
     RDKit          3D

 16 16  0  0  0  0  0  0  0  0999 V2000
    2.8466   -1.7130    0.6987 C   0  0  0  0  0  0  0  0  0  0  0  0
    3.7255   -0.5186    1.1160 C   0  0  0  0  0  0  0  0  0  0  0  0
    4.4772   -0.1673   -0.2583 C   0  0  2  0  0  0  0  0  0  0  0  0
    5.4104    1.0291    0.5148 C   0  0  0  0  0  0  0  0  0  0  0  0
    3.5199    0.9313   -0.8512 C   0  0  0  0  0  0  0  0  0  0  0  0
    2.2197    0.7151   -1.0627 N   0  0  0  0  0  0  0  0  0  0  0  0
    1.1363    0.5937   -0.1934 C   0  0  0  0  0  0  0  0  0  0  0  0
    1.3091    0.7304    1.0394 O   0  0  0  0  0  0  0  0  0  0  0  0
   -0.2596    0.2999   -0.6800 C   0  0  0  0  0  0  0  0  0  0  0  0
   -1.1874    0.2327    0.4951 C   0  0  0  0  0  0  0  0  0  0  0  0
   -2.5626   -0.0566    0.0186 C   0  0  0  0  0  0  0  0  0  0  0  0
   -3.4461    0.9494   -0.3137 C   0  0  0  0  0  0  0  0  0  0  0  0
   -4.7280    0.6454   -0.7572 C   0  0  0  0  0  0  0  0  0  0  0  0
   -5.1659   -0.6524   -0.8825 C   0  0  0  0  0  0  0  0  0  0  0  0
   -4.2872   -1.6609   -0.5519 C   0  0  0  0  0  0  0  0  0  0  0  0
   -3.0077   -1.3583   -0.1092 C   0  0  0  0  0  0  0  0  0  0  0  0
  1  2  1  0
  2  3  1  0
  3  4  1  1
  3  5  1  0
  5  6  1  0
  6  7  1  0
  7  8  2  0
  7  9  1  0
  9 10  1  0
 10 11  1  0
 11 12  2  0
 12 13  1  0
 13 14  2  0
 14 15  1  0
 15 16  2  0
 16 11  1  0
M  END

