
     RDKit          3D

 19 20  0  0  0  0  0  0  0  0999 V2000
    7.2977   -1.7752    3.4022 C   0  0  0  0  0  0  0  0  0  0  0  0
    5.6912   -1.9465    2.6095 S   0  0  0  0  0  0  0  0  0  0  0  0
    5.8575   -2.3367    0.8431 C   0  0  0  0  0  0  0  0  0  0  0  0
    4.4442   -2.4568    0.2752 C   0  0  0  0  0  0  0  0  0  0  0  0
    3.7605   -1.1309    0.4910 C   0  0  0  0  0  0  0  0  0  0  0  0
    2.3967   -1.1454   -0.0183 N   0  0  0  0  0  0  0  0  0  0  0  0
    1.5471   -0.0088    0.0591 C   0  0  0  0  0  0  0  0  0  0  0  0
    2.0629    1.0199    0.6006 O   0  0  0  0  0  0  0  0  0  0  0  0
    0.1534   -0.0223   -0.4571 C   0  0  0  0  0  0  0  0  0  0  0  0
   -0.4141    1.3661   -0.2402 C   0  0  0  0  0  0  0  0  0  0  0  0
   -1.8258    1.4435   -0.7210 C   0  0  0  0  0  0  0  0  0  0  0  0
   -2.3144    2.0062   -1.8777 C   0  0  0  0  0  0  0  0  0  0  0  0
   -3.6597    1.8343   -1.8962 N   0  0  0  0  0  0  0  0  0  0  0  0
   -4.0756    1.1784   -0.7923 C   0  0  0  0  0  0  0  0  0  0  0  0
   -5.3254    0.7848   -0.3765 C   0  0  0  0  0  0  0  0  0  0  0  0
   -5.3806    0.1129    0.8479 C   0  0  0  0  0  0  0  0  0  0  0  0
   -4.2558   -0.1343    1.5817 C   0  0  0  0  0  0  0  0  0  0  0  0
   -3.0324    0.2734    1.1338 C   0  0  0  0  0  0  0  0  0  0  0  0
   -2.9275    0.9373   -0.0635 C   0  0  0  0  0  0  0  0  0  0  0  0
  1  2  1  0
  2  3  1  0
  3  4  1  0
  4  5  1  0
  5  6  1  0
  6  7  1  0
  7  8  2  0
  7  9  1  0
  9 10  1  0
 10 11  1  0
 11 12  2  0
 12 13  1  0
 13 14  1  0
 14 15  2  0
 15 16  1  0
 16 17  2  0
 17 18  1  0
 18 19  2  0
 19 11  1  0
 19 14  1  0
M  END

