
     RDKit          3D

 43 45  0  0  0  0  0  0  0  0999 V2000
   -5.4267    2.0801    1.3368 C   0  0  0  0  0  0  0  0  0  0  0  0
   -4.2508    1.3932    0.3604 C   0  0  2  0  0  0  0  0  0  0  0  0
   -4.5219   -0.1349    0.9536 C   0  0  0  0  0  0  0  0  0  0  0  0
   -5.8856   -0.4315    0.6589 N   0  0  0  0  0  0  0  0  0  0  0  0
   -6.5005   -0.9882   -0.3566 N   0  0  0  0  0  0  0  0  0  0  0  0
   -7.8392   -1.0319   -0.1293 C   0  0  0  0  0  0  0  0  0  0  0  0
   -8.0185   -0.4791    1.0667 N   0  0  0  0  0  0  0  0  0  0  0  0
   -6.8401   -0.1253    1.5248 N   0  0  0  0  0  0  0  0  0  0  0  0
   -3.1165    1.6813    1.4251 N   0  0  0  0  0  0  0  0  0  0  0  0
   -1.8179    1.2469    1.0313 C   0  0  0  0  0  0  0  0  0  0  0  0
   -0.8041    1.4561    1.8811 N   0  0  0  0  0  0  0  0  0  0  0  0
    0.4284    1.0684    1.5591 C   0  0  0  0  0  0  0  0  0  0  0  0
    0.6738    0.4542    0.3619 C   0  0  0  0  0  0  0  0  0  0  0  0
    1.9473    0.0514    0.0248 C   0  0  0  0  0  0  0  0  0  0  0  0
    2.1977   -0.5680   -1.1815 C   0  0  0  0  0  0  0  0  0  0  0  0
    3.4689   -0.9809   -1.5406 O   0  0  0  0  0  0  0  0  0  0  0  0
    4.5368   -0.7792   -0.6851 C   0  0  0  0  0  0  0  0  0  0  0  0
    4.3294   -0.1609    0.5361 C   0  0  0  0  0  0  0  0  0  0  0  0
    5.3271    0.0771    1.4401 C   0  0  0  0  0  0  0  0  0  0  0  0
    6.6061   -0.3225    1.1119 C   0  0  0  0  0  0  0  0  0  0  0  0
    7.6508   -0.1106    1.9798 F   0  0  0  0  0  0  0  0  0  0  0  0
    6.8359   -0.9392   -0.0968 C   0  0  0  0  0  0  0  0  0  0  0  0
    5.8168   -1.1769   -1.0089 C   0  0  0  0  0  0  0  0  0  0  0  0
    6.0604   -1.7864   -2.1967 F   0  0  0  0  0  0  0  0  0  0  0  0
    1.1174   -0.7510   -2.0026 C   0  0  0  0  0  0  0  0  0  0  0  0
    1.3195   -1.3159   -3.1132 O   0  0  0  0  0  0  0  0  0  0  0  0
   -0.1081   -0.3607   -1.6725 N   0  0  0  0  0  0  0  0  0  0  0  0
   -1.2128   -0.5966   -2.6151 C   0  0  0  0  0  0  0  0  0  0  0  0
   -0.3714    0.2436   -0.5034 C   0  0  0  0  0  0  0  0  0  0  0  0
   -1.6020    0.6459   -0.1499 N   0  0  0  0  0  0  0  0  0  0  0  0
    5.0247   -0.7198   -0.5880 O   0  0  0  0  0  1  0  0  0  0  0  0
    4.0801    0.2859   -0.4531 C   0  0  0  0  0  0  0  0  0  0  0  0
    4.3626    1.2616    0.2814 O   0  0  0  0  0  0  0  0  0  0  0  0
    2.7622    0.2819   -1.1194 C   0  0  0  0  0  0  0  0  0  0  0  0
    1.6503   -0.1211   -0.1887 C   0  0  0  0  0  0  0  0  0  0  0  0
    0.4191   -0.0933   -0.9271 N   0  0  0  0  0  0  0  0  0  0  0  0
   -0.8468   -0.4104   -0.3960 C   0  0  0  0  0  0  0  0  0  0  0  0
   -0.9387   -0.7434    0.7999 O   0  0  0  0  0  0  0  0  0  0  0  0
   -2.0315   -0.3402   -1.2697 C   0  0  0  0  0  0  0  0  0  0  0  0
   -3.2983   -0.6980   -0.5706 C   0  0  0  0  0  0  0  0  0  0  0  0
   -3.5905    0.1961    0.5775 C   0  0  0  0  0  0  0  0  0  0  0  0
   -4.7471   -0.0482    1.3043 O   0  0  0  0  0  1  0  0  0  0  0  0
   -2.8459    1.1489    0.9124 O   0  0  0  0  0  0  0  0  0  0  0  0
  2  1  1  1
  2  3  1  0
  3  4  1  0
  4  5  1  0
  5  6  2  0
  6  7  1  0
  7  8  2  0
  2  9  1  0
  9 10  1  0
 10 11  2  0
 11 12  1  0
 12 13  2  0
 13 14  1  0
 14 15  2  0
 15 16  1  0
 16 17  1  0
 17 18  2  0
 18 19  1  0
 19 20  2  0
 20 21  1  0
 20 22  1  0
 22 23  2  0
 23 24  1  0
 15 25  1  0
 25 26  2  0
 25 27  1  0
 27 28  1  0
 27 29  1  0
 29 30  2  0
 31 32  1  0
 32 33  2  0
 32 34  1  0
 34 35  1  0
 35 36  1  0
 36 37  1  0
 37 38  2  0
 37 39  1  0
 39 40  1  0
 40 41  1  0
 41 42  1  0
 41 43  2  0
  8  4  1  0
 30 10  1  0
 29 13  1  0
 23 17  1  0
M  RAD  2  31   2  42   2
M  END

