
     RDKit          3D

 45 48  0  0  0  0  0  0  0  0999 V2000
    5.0621    1.2770   -0.5124 C   0  0  0  0  0  0  0  0  0  0  0  0
    4.3672    0.4636   -1.5944 C   0  0  0  0  0  0  0  0  0  0  0  0
    3.5825   -0.6497   -0.6450 C   0  0  2  0  0  0  0  0  0  0  0  0
    2.9158   -1.4050   -1.9626 C   0  0  0  0  0  0  0  0  0  0  0  0
    2.2669    0.3206   -0.4446 C   0  0  0  0  0  0  0  0  0  0  0  0
    1.4576   -0.5492    0.3980 N   0  0  0  0  0  0  0  0  0  0  0  0
    0.1584   -0.1425    0.8663 C   0  0  0  0  0  0  0  0  0  0  0  0
   -0.1944    0.9943    0.4900 O   0  0  0  0  0  0  0  0  0  0  0  0
   -0.6527   -1.0456    1.7261 C   0  0  0  0  0  0  0  0  0  0  0  0
   -1.9730   -0.4914    2.1083 C   0  0  0  0  0  0  0  0  0  0  0  0
   -2.7613   -0.2360    0.8737 C   0  0  0  0  0  0  0  0  0  0  0  0
   -3.6122   -1.1678    0.2592 C   0  0  0  0  0  0  0  0  0  0  0  0
   -4.1409   -0.5707   -0.8143 N   0  0  0  0  0  0  0  0  0  0  0  0
   -3.6515    0.6806   -0.8815 C   0  0  0  0  0  0  0  0  0  0  0  0
   -2.8245    0.8768    0.1331 N   0  0  0  0  0  0  0  0  0  0  0  0
   -5.6043    3.3791   -0.5703 C   0  0  0  0  0  0  0  0  0  0  0  0
   -4.5488    2.0903   -0.8921 C   0  0  2  0  0  0  0  0  0  0  0  0
   -5.7194    1.0159   -0.4284 C   0  0  0  0  0  0  0  0  0  0  0  0
   -5.0834   -0.2615   -0.6066 N   0  0  0  0  0  0  0  0  0  0  0  0
   -4.4103   -0.9287    0.3059 N   0  0  0  0  0  0  0  0  0  0  0  0
   -3.9690   -2.0718   -0.2309 C   0  0  0  0  0  0  0  0  0  0  0  0
   -4.3781   -2.1223   -1.5193 N   0  0  0  0  0  0  0  0  0  0  0  0
   -5.0528   -1.0105   -1.7214 N   0  0  0  0  0  0  0  0  0  0  0  0
   -3.9132    2.2029    0.5441 N   0  0  0  0  0  0  0  0  0  0  0  0
   -2.6765    1.5644    0.7461 C   0  0  0  0  0  0  0  0  0  0  0  0
   -2.1422    1.6425    1.9769 N   0  0  0  0  0  0  0  0  0  0  0  0
   -0.9549    1.0996    2.3029 C   0  0  0  0  0  0  0  0  0  0  0  0
   -0.2280    0.4256    1.3535 C   0  0  0  0  0  0  0  0  0  0  0  0
    0.9824   -0.1256    1.6933 C   0  0  0  0  0  0  0  0  0  0  0  0
    1.6926   -0.7959    0.7262 C   0  0  0  0  0  0  0  0  0  0  0  0
    2.9197   -1.3626    1.0443 O   0  0  0  0  0  0  0  0  0  0  0  0
    4.1078   -1.0159    0.4266 C   0  0  0  0  0  0  0  0  0  0  0  0
    4.8496   -1.9551   -0.2535 C   0  0  0  0  0  0  0  0  0  0  0  0
    6.0367   -1.6441   -0.8797 C   0  0  0  0  0  0  0  0  0  0  0  0
    6.5287   -0.3574   -0.8443 C   0  0  0  0  0  0  0  0  0  0  0  0
    7.6760    0.0247   -1.4287 F   0  0  0  0  0  0  0  0  0  0  0  0
    5.7806    0.5819   -0.1604 C   0  0  0  0  0  0  0  0  0  0  0  0
    4.5927    0.2676    0.4655 C   0  0  0  0  0  0  0  0  0  0  0  0
    3.9312    1.2416    1.1067 F   0  0  0  0  0  0  0  0  0  0  0  0
    1.1406   -0.8730   -0.5330 C   0  0  0  0  0  0  0  0  0  0  0  0
    1.8087   -1.4943   -1.4119 O   0  0  0  0  0  0  0  0  0  0  0  0
   -0.0569   -0.3210   -0.8471 N   0  0  0  0  0  0  0  0  0  0  0  0
   -0.5883   -0.4378   -2.2025 C   0  0  0  0  0  0  0  0  0  0  0  0
   -0.7599    0.3371    0.0923 C   0  0  0  0  0  0  0  0  0  0  0  0
   -1.9610    0.9042   -0.1773 N   0  0  0  0  0  0  0  0  0  0  0  0
  1  2  1  0
  2  3  1  0
  3  4  1  6
  3  5  1  0
  5  6  1  0
  6  7  1  0
  7  8  2  0
  7  9  1  0
  9 10  1  0
 10 11  1  0
 11 12  2  0
 12 13  1  0
 13 14  1  0
 14 15  2  0
 17 16  1  1
 17 18  1  0
 18 19  1  0
 19 20  1  0
 20 21  2  0
 21 22  1  0
 22 23  2  0
 17 24  1  0
 24 25  1  0
 25 26  2  0
 26 27  1  0
 27 28  2  0
 28 29  1  0
 29 30  2  0
 30 31  1  0
 31 32  1  0
 32 33  2  0
 33 34  1  0
 34 35  2  0
 35 36  1  0
 35 37  1  0
 37 38  2  0
 38 39  1  0
 30 40  1  0
 40 41  2  0
 40 42  1  0
 42 43  1  0
 42 44  1  0
 44 45  2  0
 15 11  1  0
 23 19  1  0
 45 25  1  0
 44 28  1  0
 38 32  1  0
M  END

