
     RDKit          3D

 23 25  0  0  0  0  0  0  0  0999 V2000
    0.3222    0.2166   -1.0753 O   0  0  0  0  0  0  0  0  0  0  0  0
    0.5934    1.3628   -0.6576 C   0  0  0  0  0  0  0  0  0  0  0  0
    1.9033    1.9681   -0.9510 C   0  0  0  0  0  0  0  0  0  0  0  0
    2.7401    0.9892   -1.7235 C   0  0  0  0  0  0  0  0  0  0  0  0
    2.9644   -0.2416   -0.9357 C   0  0  0  0  0  0  0  0  0  0  0  0
    2.4258   -1.5024   -1.0439 C   0  0  0  0  0  0  0  0  0  0  0  0
    2.9481   -2.2828   -0.1078 N   0  0  0  0  0  0  0  0  0  0  0  0
    3.8272   -1.5518    0.6191 C   0  0  0  0  0  0  0  0  0  0  0  0
    4.6248   -1.9113    1.7030 C   0  0  0  0  0  0  0  0  0  0  0  0
    5.4413   -0.9532    2.2629 C   0  0  0  0  0  0  0  0  0  0  0  0
    5.4639    0.3332    1.7556 C   0  0  0  0  0  0  0  0  0  0  0  0
    4.6848    0.7069    0.6873 C   0  0  0  0  0  0  0  0  0  0  0  0
    3.8583   -0.2696    0.1235 C   0  0  0  0  0  0  0  0  0  0  0  0
   -0.4074    2.0390    0.1002 N   0  0  0  0  0  0  0  0  0  0  0  0
   -1.7026    1.4701    0.4042 C   0  0  0  0  0  0  0  0  0  0  0  0
   -2.4863    1.1432   -0.8427 C   0  0  0  0  0  0  0  0  0  0  0  0
   -3.7831    0.5719   -0.3962 C   0  0  0  0  0  0  0  0  0  0  0  0
   -4.9116    1.3207   -0.1514 C   0  0  0  0  0  0  0  0  0  0  0  0
   -6.0954    0.7028    0.2683 C   0  0  0  0  0  0  0  0  0  0  0  0
   -6.1578   -0.6631    0.4451 C   0  0  0  0  0  0  0  0  0  0  0  0
   -7.3603   -1.2464    0.8663 O   0  0  0  0  0  0  0  0  0  0  0  0
   -5.0329   -1.4111    0.2012 C   0  0  0  0  0  0  0  0  0  0  0  0
   -3.8601   -0.7912   -0.2154 C   0  0  0  0  0  0  0  0  0  0  0  0
  1  2  2  0
  2  3  1  0
  3  4  1  0
  4  5  1  0
  5  6  2  0
  6  7  1  0
  7  8  1  0
  8  9  2  0
  9 10  1  0
 10 11  2  0
 11 12  1  0
 12 13  2  0
  2 14  1  0
 14 15  1  0
 15 16  1  0
 16 17  1  0
 17 18  2  0
 18 19  1  0
 19 20  2  0
 20 21  1  0
 20 22  1  0
 22 23  2  0
 13  5  1  0
 23 17  1  0
 13  8  1  0
M  END

