
     RDKit          3D

 12 11  0  0  0  0  0  0  0  0999 V2000
   -4.0318   -0.8480   -1.0524 C   0  0  0  0  0  0  0  0  0  0  0  0
   -3.3819   -1.2630    0.2094 C   0  0  0  0  0  0  0  0  0  0  0  0
   -2.0647   -0.3701    0.4852 C   0  0  2  0  0  0  0  0  0  0  0  0
   -2.8511    1.0482    0.5232 C   0  0  0  0  0  0  0  0  0  0  0  0
   -1.6411   -0.2438   -1.0704 C   0  0  0  0  0  0  0  0  0  0  0  0
   -0.4251    0.5535   -1.0912 N   0  0  0  0  0  0  0  0  0  0  0  0
    0.7645    0.1556   -0.4210 C   0  0  0  0  0  0  0  0  0  0  0  0
    0.7085   -0.9379    0.1995 O   0  0  0  0  0  0  0  0  0  0  0  0
    1.9957    0.9821   -0.4533 C   0  0  0  0  0  0  0  0  0  0  0  0
    3.1351    0.4267    0.2905 C   0  0  0  0  0  0  0  0  0  0  0  0
    3.6372   -0.9007   -0.1373 C   0  0  0  0  0  0  0  0  0  0  0  0
    4.1546    1.3976    0.7539 C   0  0  0  0  0  0  0  0  0  0  0  0
  1  2  1  0
  2  3  1  0
  3  4  1  6
  3  5  1  0
  5  6  1  0
  6  7  1  0
  7  8  2  0
  7  9  1  0
  9 10  1  0
 10 11  1  0
 10 12  1  0
M  END

