
     RDKit          3D

 13 13  0  0  0  0  0  0  0  0999 V2000
    4.7379    0.3114   -0.5749 O   0  0  0  0  0  1  0  0  0  0  0  0
    3.3886    0.2661   -0.8226 C   0  0  0  0  0  0  0  0  0  0  0  0
    2.7072    1.3040   -0.7633 O   0  0  0  0  0  0  0  0  0  0  0  0
    2.7440   -1.0139   -1.1598 C   0  0  0  0  0  0  0  0  0  0  0  0
    1.2748   -0.8999   -1.4011 C   0  0  0  0  0  0  0  0  0  0  0  0
    0.5398   -0.3797   -0.2092 C   0  0  0  0  0  0  0  0  0  0  0  0
   -0.9034   -0.2799   -0.4809 C   0  0  0  0  0  0  0  0  0  0  0  0
   -1.3525   -0.6213   -1.6208 O   0  0  0  0  0  0  0  0  0  0  0  0
   -1.8277    0.1889    0.4922 N   0  0  0  0  0  0  0  0  0  0  0  0
   -1.5190    0.6228    1.8400 C   0  0  0  0  0  0  0  0  0  0  0  0
   -2.6671    0.0219    2.6403 C   0  0  0  0  0  0  0  0  0  0  0  0
   -3.8603    0.1469    1.7118 C   0  0  0  0  0  0  0  0  0  0  0  0
   -3.2623    0.3327    0.3483 C   0  0  0  0  0  0  0  0  0  0  0  0
  1  2  1  0
  2  3  2  0
  2  4  1  0
  4  5  1  0
  5  6  1  0
  6  7  1  0
  7  8  2  0
  7  9  1  0
  9 10  1  0
 10 11  1  0
 11 12  1  0
 12 13  1  0
 13  9  1  0
M  RAD  1   1   2
M  END

