
     RDKit          3D

 14 13  0  0  0  0  0  0  0  0999 V2000
    4.8734    0.6262   -0.9272 C   0  0  0  0  0  0  0  0  0  0  0  0
    3.3373    0.3659   -0.8110 C   0  0  0  0  0  0  0  0  0  0  0  0
    2.8992    1.1838    0.4318 C   0  0  0  0  0  0  0  0  0  0  0  0
    3.0825   -1.0601   -0.6130 C   0  0  0  0  0  0  0  0  0  0  0  0
    1.8090   -1.6173   -0.5384 C   0  0  0  0  0  0  0  0  0  0  0  0
    0.7703   -1.3370    0.2807 N   0  0  0  0  0  0  0  0  0  0  0  0
   -0.0567   -0.2281    0.4050 C   0  0  0  0  0  0  0  0  0  0  0  0
    0.0261    0.7888   -0.3130 O   0  0  0  0  0  0  0  0  0  0  0  0
   -1.1070   -0.2411    1.4525 C   0  0  0  0  0  0  0  0  0  0  0  0
   -1.8844    1.0408    1.4203 C   0  0  0  0  0  0  0  0  0  0  0  0
   -2.5659    1.2459    0.0614 C   0  0  0  0  0  0  0  0  0  0  0  0
   -3.4732    0.0956   -0.1252 C   0  0  0  0  0  0  0  0  0  0  0  0
   -3.1395   -0.9553   -0.9534 O   0  0  0  0  0  1  0  0  0  0  0  0
   -4.5712    0.0919    0.4937 O   0  0  0  0  0  0  0  0  0  0  0  0
  1  2  1  0
  2  3  1  0
  2  4  1  0
  4  5  1  0
  5  6  1  0
  6  7  1  0
  7  8  2  0
  7  9  1  0
  9 10  1  0
 10 11  1  0
 11 12  1  0
 12 13  1  0
 12 14  2  0
M  RAD  1  13   2
M  END

