
     RDKit          3D

 15 15  0  0  0  0  0  0  0  0999 V2000
   -2.8889    0.9358    2.0861 C   0  0  0  0  0  0  0  0  0  0  0  0
   -3.4078    0.9191    0.6822 C   0  0  0  0  0  0  0  0  0  0  0  0
   -4.1263    2.2256    0.4293 C   0  0  0  0  0  0  0  0  0  0  0  0
   -2.3497    0.7470   -0.3595 C   0  0  0  0  0  0  0  0  0  0  0  0
   -1.5928   -0.4946   -0.2336 C   0  0  0  0  0  0  0  0  0  0  0  0
   -1.8525   -1.2979    0.6806 O   0  0  0  0  0  0  0  0  0  0  0  0
   -0.5617   -0.7977   -1.1434 N   0  0  0  0  0  0  0  0  0  0  0  0
    0.2302   -2.0141   -1.0759 C   0  0  0  0  0  0  0  0  0  0  0  0
    0.9190   -2.0064    0.2760 C   0  0  0  0  0  0  0  0  0  0  0  0
    1.7689   -0.7955    0.3430 C   0  0  0  0  0  0  0  0  0  0  0  0
    1.2926    0.4011    0.8276 C   0  0  0  0  0  0  0  0  0  0  0  0
    2.1439    1.4871    0.8594 C   0  0  0  0  0  0  0  0  0  0  0  0
    3.4371    1.3862    0.4201 C   0  0  0  0  0  0  0  0  0  0  0  0
    3.9155    0.1840   -0.0668 C   0  0  0  0  0  0  0  0  0  0  0  0
    3.0724   -0.8797   -0.0949 C   0  0  0  0  0  0  0  0  0  0  0  0
  1  2  1  0
  2  3  1  0
  2  4  1  0
  4  5  1  0
  5  6  2  0
  5  7  1  0
  7  8  1  0
  8  9  1  0
  9 10  1  0
 10 11  2  0
 11 12  1  0
 12 13  2  0
 13 14  1  0
 14 15  2  0
 15 10  1  0
M  END

