
     RDKit          3D

 14 13  0  0  0  0  0  0  0  0999 V2000
   -3.2116    1.7055   -1.2618 N   0  0  0  0  0  0  0  0  0  0  0  0
   -2.9628    0.4061   -0.7206 C   0  0  0  0  0  0  0  0  0  0  0  0
   -2.8003    0.3571    0.5121 O   0  0  0  0  0  0  0  0  0  0  0  0
   -2.9163   -0.7498   -1.5970 C   0  0  0  0  0  0  0  0  0  0  0  0
   -2.2665   -1.9582   -1.0573 C   0  0  0  0  0  0  0  0  0  0  0  0
   -0.8303   -1.8413   -0.7429 C   0  0  0  0  0  0  0  0  0  0  0  0
   -0.5795   -0.8384    0.2427 N   0  0  0  0  0  0  0  0  0  0  0  0
    0.7152   -0.5103    0.7397 C   0  0  0  0  0  0  0  0  0  0  0  0
    1.6720   -1.1714    0.2513 O   0  0  0  0  0  0  0  0  0  0  0  0
    0.9526    0.5327    1.7620 C   0  0  0  0  0  0  0  0  0  0  0  0
    2.4344    0.6437    2.0100 C   0  0  0  0  0  0  0  0  0  0  0  0
    3.0997    1.0301    0.7511 C   0  0  0  0  0  0  0  0  0  0  0  0
    2.3422    1.2741   -0.3727 O   0  0  0  0  0  1  0  0  0  0  0  0
    4.3513    1.1201    0.7662 O   0  0  0  0  0  0  0  0  0  0  0  0
  1  2  1  0
  2  3  2  0
  2  4  1  0
  4  5  1  0
  5  6  1  0
  6  7  1  0
  7  8  1  0
  8  9  2  0
  8 10  1  0
 10 11  1  0
 11 12  1  0
 12 13  1  0
 12 14  2  0
M  RAD  1  13   2
M  END

