
     RDKit          3D

 43 45  0  0  0  0  0  0  0  0999 V2000
    5.4598   -0.4599    1.2381 C   0  0  0  0  0  0  0  0  0  0  0  0
    4.6962   -0.4266   -0.0693 C   0  0  0  0  0  0  0  0  0  0  0  0
    3.3349   -0.0169    0.2570 N   0  0  0  0  0  0  0  0  0  0  0  0
    2.3690    0.1103   -0.7519 C   0  0  0  0  0  0  0  0  0  0  0  0
    2.7233   -0.1415   -1.9385 O   0  0  0  0  0  0  0  0  0  0  0  0
    0.9704    0.5242   -0.4693 C   0  0  0  0  0  0  0  0  0  0  0  0
    0.1564    0.5785   -1.7225 C   0  0  0  0  0  0  0  0  0  0  0  0
   -1.2471    0.9949   -1.4302 C   0  0  0  0  0  0  0  0  0  0  0  0
   -1.9507    0.0465   -0.4850 C   0  0  0  0  0  0  0  0  0  0  0  0
   -3.2966    0.4470   -0.2056 N   0  0  0  0  0  0  0  0  0  0  0  0
   -4.1259   -0.3111    0.6602 C   0  0  0  0  0  0  0  0  0  0  0  0
   -5.4581    0.0296    0.9752 N   0  0  0  0  0  0  0  0  0  0  0  0
   -3.6315   -1.3749    1.1903 N   0  0  0  0  0  4  0  0  0  0  0  0
    6.5369   -0.1190   -1.4613 C   0  0  0  0  0  0  0  0  0  0  0  0
    5.0344    0.3503   -1.9843 C   0  0  2  0  0  0  0  0  0  0  0  0
    5.0199    1.7433   -1.1013 C   0  0  0  0  0  0  0  0  0  0  0  0
    5.1454    1.4206    0.2672 N   0  0  0  0  0  0  0  0  0  0  0  0
    4.2642    1.1577    1.2137 N   0  0  0  0  0  0  0  0  0  0  0  0
    4.8713    0.9019    2.3853 C   0  0  0  0  0  0  0  0  0  0  0  0
    6.1859    1.0148    2.1390 N   0  0  0  0  0  0  0  0  0  0  0  0
    6.3313    1.3211    0.8854 N   0  0  0  0  0  0  0  0  0  0  0  0
    4.2684   -0.4950   -0.8937 N   0  0  0  0  0  0  0  0  0  0  0  0
    2.8411   -0.3592   -1.0027 C   0  0  0  0  0  0  0  0  0  0  0  0
    2.2449    0.4035   -1.9317 N   0  0  0  0  0  0  0  0  0  0  0  0
    0.9202    0.5469   -2.0546 C   0  0  0  0  0  0  0  0  0  0  0  0
    0.0708   -0.1332   -1.1672 C   0  0  0  0  0  0  0  0  0  0  0  0
   -1.2826   -0.0155   -1.2561 C   0  0  0  0  0  0  0  0  0  0  0  0
   -2.1068   -0.7364   -0.3186 C   0  0  0  0  0  0  0  0  0  0  0  0
   -3.4170   -0.6097   -0.4244 O   0  0  0  0  0  0  0  0  0  0  0  0
   -4.5077   -0.1609    0.2000 C   0  0  0  0  0  0  0  0  0  0  0  0
   -5.1304    0.9165   -0.5152 C   0  0  0  0  0  0  0  0  0  0  0  0
   -6.2456    1.5254   -0.0746 C   0  0  0  0  0  0  0  0  0  0  0  0
   -6.8481    1.1465    1.0863 C   0  0  0  0  0  0  0  0  0  0  0  0
   -7.9708    1.7329    1.5662 F   0  0  0  0  0  0  0  0  0  0  0  0
   -6.2734    0.1201    1.7871 C   0  0  0  0  0  0  0  0  0  0  0  0
   -5.1131   -0.5341    1.3546 C   0  0  0  0  0  0  0  0  0  0  0  0
   -4.6301   -1.5459    2.0881 F   0  0  0  0  0  0  0  0  0  0  0  0
   -1.4404   -1.4976    0.6036 C   0  0  0  0  0  0  0  0  0  0  0  0
   -2.0224   -2.1884    1.4860 O   0  0  0  0  0  0  0  0  0  0  0  0
   -0.0813   -1.5744    0.6420 N   0  0  0  0  0  0  0  0  0  0  0  0
    0.6035   -2.4005    1.6460 C   0  0  0  0  0  0  0  0  0  0  0  0
    0.6881   -0.9142   -0.2163 C   0  0  0  0  0  0  0  0  0  0  0  0
    2.0431   -1.0174   -0.1450 N   0  0  0  0  0  0  0  0  0  0  0  0
  1  2  1  0
  2  3  1  0
  3  4  1  0
  4  5  2  0
  4  6  1  0
  6  7  1  0
  7  8  1  0
  8  9  1  0
  9 10  1  0
 10 11  1  0
 11 12  1  0
 11 13  2  0
 15 14  1  1
 15 16  1  0
 16 17  1  0
 17 18  1  0
 18 19  2  0
 19 20  1  0
 20 21  2  0
 15 22  1  0
 22 23  1  0
 23 24  2  0
 24 25  1  0
 25 26  2  0
 26 27  1  0
 27 28  2  0
 28 29  1  0
 29 30  1  0
 30 31  2  0
 31 32  1  0
 32 33  2  0
 33 34  1  0
 33 35  1  0
 35 36  2  0
 36 37  1  0
 28 38  1  0
 38 39  2  0
 38 40  1  0
 40 41  1  0
 40 42  1  0
 42 43  2  0
 21 17  1  0
 43 23  1  0
 42 26  1  0
 36 30  1  0
M  CHG  1  13   1
M  END

