
     RDKit          3D

 14 13  0  0  0  0  0  0  0  0999 V2000
    3.4963   -0.3130   -2.0479 C   0  0  0  0  0  0  0  0  0  0  0  0
    3.1842   -0.0004   -0.5906 C   0  0  0  0  0  0  0  0  0  0  0  0
    4.4251   -0.1792    0.2185 C   0  0  0  0  0  0  0  0  0  0  0  0
    2.5863    1.3674   -0.4950 C   0  0  0  0  0  0  0  0  0  0  0  0
    2.2660    1.7088    0.9284 C   0  0  0  0  0  0  0  0  0  0  0  0
    1.3241    0.7992    1.5394 N   0  0  0  0  0  0  0  0  0  0  0  0
    0.0115    0.5750    1.0690 C   0  0  0  0  0  0  0  0  0  0  0  0
   -0.3654    1.2065    0.0524 O   0  0  0  0  0  0  0  0  0  0  0  0
   -0.8835   -0.3990    1.7885 C   0  0  0  0  0  0  0  0  0  0  0  0
   -2.2239   -0.5006    1.1460 C   0  0  0  0  0  0  0  0  0  0  0  0
   -2.1608   -0.9652   -0.2881 C   0  0  0  0  0  0  0  0  0  0  0  0
   -3.4846   -1.0603   -0.9064 C   0  0  0  0  0  0  0  0  0  0  0  0
   -3.6812   -1.4760   -2.2488 N   0  0  0  0  0  0  0  0  0  0  0  0
   -4.4943   -0.7632   -0.2270 O   0  0  0  0  0  0  0  0  0  0  0  0
  1  2  1  0
  2  3  1  0
  2  4  1  0
  4  5  1  0
  5  6  1  0
  6  7  1  0
  7  8  2  0
  7  9  1  0
  9 10  1  0
 10 11  1  0
 11 12  1  0
 12 13  1  0
 12 14  2  0
M  END

