
     RDKit          3D

 44 47  0  0  0  0  0  0  0  0999 V2000
    4.0933    3.2060    0.0900 C   0  0  0  0  0  0  0  0  0  0  0  0
    5.0120    1.8619    0.4122 C   0  0  2  0  0  0  0  0  0  0  0  0
    4.7057    1.1729   -1.0602 C   0  0  0  0  0  0  0  0  0  0  0  0
    5.4546   -0.0784   -0.9842 N   0  0  0  0  0  0  0  0  0  0  0  0
    5.0310   -1.2377   -0.5471 N   0  0  0  0  0  0  0  0  0  0  0  0
    6.0376   -2.1217   -0.6501 C   0  0  0  0  0  0  0  0  0  0  0  0
    7.0744   -1.4344   -1.1671 N   0  0  0  0  0  0  0  0  0  0  0  0
    6.7196   -0.1797   -1.3733 N   0  0  0  0  0  0  0  0  0  0  0  0
    3.8594    1.1049    1.1676 N   0  0  0  0  0  0  0  0  0  0  0  0
    2.6612    0.8561    0.5321 C   0  0  0  0  0  0  0  0  0  0  0  0
    2.4304    1.2441   -0.7379 N   0  0  0  0  0  0  0  0  0  0  0  0
    1.2658    1.0065   -1.3669 C   0  0  0  0  0  0  0  0  0  0  0  0
    0.2991    0.3430   -0.6611 C   0  0  0  0  0  0  0  0  0  0  0  0
   -0.9518    0.0460   -1.2264 C   0  0  0  0  0  0  0  0  0  0  0  0
   -1.9121   -0.6186   -0.5112 C   0  0  0  0  0  0  0  0  0  0  0  0
   -3.1251   -0.8990   -1.0793 O   0  0  0  0  0  0  0  0  0  0  0  0
   -4.3234   -0.4309   -0.5652 C   0  0  0  0  0  0  0  0  0  0  0  0
   -4.2585    0.3520    0.5734 C   0  0  0  0  0  0  0  0  0  0  0  0
   -5.3905    0.8610    1.1555 C   0  0  0  0  0  0  0  0  0  0  0  0
   -6.5987    0.5758    0.5812 C   0  0  0  0  0  0  0  0  0  0  0  0
   -7.7217    1.0890    1.1705 F   0  0  0  0  0  0  0  0  0  0  0  0
   -6.6658   -0.2018   -0.5501 C   0  0  0  0  0  0  0  0  0  0  0  0
   -5.5378   -0.7219   -1.1489 C   0  0  0  0  0  0  0  0  0  0  0  0
   -5.5660   -1.4798   -2.2464 F   0  0  0  0  0  0  0  0  0  0  0  0
   -1.6547   -1.0026    0.7770 C   0  0  0  0  0  0  0  0  0  0  0  0
   -2.5119   -1.6169    1.4712 O   0  0  0  0  0  0  0  0  0  0  0  0
   -0.4588   -0.7222    1.3269 N   0  0  0  0  0  0  0  0  0  0  0  0
   -0.1582   -1.1146    2.6838 C   0  0  0  0  0  0  0  0  0  0  0  0
    0.4947   -0.0671    0.6293 C   0  0  0  0  0  0  0  0  0  0  0  0
    1.6961    0.2080    1.1990 N   0  0  0  0  0  0  0  0  0  0  0  0
    3.1950   -0.1220    2.1278 O   0  0  0  0  0  1  0  0  0  0  0  0
    3.5679    0.6446    1.0165 C   0  0  0  0  0  0  0  0  0  0  0  0
    4.3480    1.6098    1.1793 O   0  0  0  0  0  0  0  0  0  0  0  0
    3.0243    0.2723   -0.2786 C   0  0  0  0  0  0  0  0  0  0  0  0
    1.5506    0.4717   -0.4434 C   0  0  0  0  0  0  0  0  0  0  0  0
    1.0286    0.0936   -1.7864 C   0  0  0  0  0  0  0  0  0  0  0  0
   -0.4136    0.2947   -1.7852 N   0  0  0  0  0  0  0  0  0  0  0  0
   -1.2983   -0.3663   -0.9231 C   0  0  0  0  0  0  0  0  0  0  0  0
   -0.9062   -1.1716   -0.0991 O   0  0  0  0  0  0  0  0  0  0  0  0
   -2.8056    0.0172   -1.1140 C   0  0  2  0  0  0  0  0  0  0  0  0
   -2.8007    1.3330   -0.1473 C   0  0  0  0  0  0  0  0  0  0  0  0
   -2.3602    0.7930    1.1599 C   0  0  0  0  0  0  0  0  0  0  0  0
   -2.6996   -0.6525    1.1355 C   0  0  0  0  0  0  0  0  0  0  0  0
   -3.4302   -0.9204   -0.0420 N   0  0  0  0  0  0  0  0  0  0  0  0
  2  1  1  6
  2  3  1  0
  3  4  1  0
  4  5  1  0
  5  6  2  0
  6  7  1  0
  7  8  2  0
  2  9  1  0
  9 10  1  0
 10 11  2  0
 11 12  1  0
 12 13  2  0
 13 14  1  0
 14 15  2  0
 15 16  1  0
 16 17  1  0
 17 18  2  0
 18 19  1  0
 19 20  2  0
 20 21  1  0
 20 22  1  0
 22 23  2  0
 23 24  1  0
 15 25  1  0
 25 26  2  0
 25 27  1  0
 27 28  1  0
 27 29  1  0
 29 30  2  0
 31 32  1  0
 32 33  2  0
 32 34  1  0
 34 35  1  0
 35 36  1  0
 36 37  1  0
 37 38  1  0
 38 39  2  0
 40 38  1  1
 40 41  1  0
 41 42  1  0
 42 43  1  0
 43 44  1  0
  8  4  1  0
 30 10  1  0
 44 40  1  0
 29 13  1  0
 23 17  1  0
M  RAD  1  31   2
M  END

