
     RDKit          3D

 45 48  0  0  0  0  0  0  0  0999 V2000
   -3.7230    1.4879   -1.4320 C   0  0  0  0  0  0  0  0  0  0  0  0
   -4.1477    1.1399    0.1536 C   0  0  1  0  0  0  0  0  0  0  0  0
   -5.5682    0.7044   -0.2543 O   0  0  0  0  0  0  0  0  0  0  0  0
   -3.5523   -0.4171    0.0452 C   0  0  0  0  0  0  0  0  0  0  0  0
   -2.1409   -0.1664   -0.2695 C   0  0  0  0  0  0  0  0  0  0  0  0
   -1.6199    0.9493   -0.4007 O   0  0  0  0  0  0  0  0  0  0  0  0
   -1.2987   -1.3058   -0.4384 N   0  0  0  0  0  0  0  0  0  0  0  0
    0.0932   -1.1788   -0.7470 C   0  0  0  0  0  0  0  0  0  0  0  0
    0.7610   -0.4065    0.3626 C   0  0  0  0  0  0  0  0  0  0  0  0
    2.1867   -0.2800    0.0401 C   0  0  0  0  0  0  0  0  0  0  0  0
    3.0949   -1.2235    0.4522 C   0  0  0  0  0  0  0  0  0  0  0  0
    4.4331   -1.0696    0.1282 C   0  0  0  0  0  0  0  0  0  0  0  0
    4.8695    0.0155   -0.6015 C   0  0  0  0  0  0  0  0  0  0  0  0
    3.9739    0.9589   -1.0157 C   0  0  0  0  0  0  0  0  0  0  0  0
    2.6384    0.7918   -0.6843 C   0  0  0  0  0  0  0  0  0  0  0  0
   -5.9864   -1.3379    2.2587 C   0  0  0  0  0  0  0  0  0  0  0  0
   -4.7776   -0.2939    1.6901 C   0  0  2  0  0  0  0  0  0  0  0  0
   -5.5729   -0.1696    0.2429 C   0  0  0  0  0  0  0  0  0  0  0  0
   -4.7708    0.7150   -0.5573 N   0  0  0  0  0  0  0  0  0  0  0  0
   -3.7995    0.4605   -1.4066 N   0  0  0  0  0  0  0  0  0  0  0  0
   -3.3519    1.6130   -1.9126 C   0  0  0  0  0  0  0  0  0  0  0  0
   -4.0634    2.5985   -1.3627 N   0  0  0  0  0  0  0  0  0  0  0  0
   -4.9213    2.0512   -0.5429 N   0  0  0  0  0  0  0  0  0  0  0  0
   -3.8843   -1.5038    1.2205 N   0  0  0  0  0  0  0  0  0  0  0  0
   -2.5585   -1.1006    0.9893 C   0  0  0  0  0  0  0  0  0  0  0  0
   -2.0918    0.1363    1.1597 N   0  0  0  0  0  0  0  0  0  0  0  0
   -0.8394    0.5141    0.9406 C   0  0  0  0  0  0  0  0  0  0  0  0
    0.0601   -0.4316    0.5034 C   0  0  0  0  0  0  0  0  0  0  0  0
    1.3938   -0.0957    0.2549 C   0  0  0  0  0  0  0  0  0  0  0  0
    2.2441   -1.0902   -0.1815 C   0  0  0  0  0  0  0  0  0  0  0  0
    3.5828   -0.8357   -0.4501 O   0  0  0  0  0  0  0  0  0  0  0  0
    4.0969    0.4544   -0.2791 C   0  0  0  0  0  0  0  0  0  0  0  0
    4.6556    1.1720   -1.2953 C   0  0  0  0  0  0  0  0  0  0  0  0
    5.1405    2.4400   -1.0439 C   0  0  0  0  0  0  0  0  0  0  0  0
    5.0755    2.9979    0.2012 C   0  0  0  0  0  0  0  0  0  0  0  0
    5.5596    4.2477    0.4239 F   0  0  0  0  0  0  0  0  0  0  0  0
    4.5061    2.2507    1.2093 C   0  0  0  0  0  0  0  0  0  0  0  0
    4.0170    0.9913    0.9901 C   0  0  0  0  0  0  0  0  0  0  0  0
    3.4653    0.3015    2.0267 F   0  0  0  0  0  0  0  0  0  0  0  0
    1.7540   -2.3680   -0.3556 C   0  0  0  0  0  0  0  0  0  0  0  0
    2.5737   -3.2583   -0.7606 O   0  0  0  0  0  0  0  0  0  0  0  0
    0.4720   -2.6854   -0.1154 N   0  0  0  0  0  0  0  0  0  0  0  0
    0.0411   -4.0437   -0.3224 C   0  0  0  0  0  0  0  0  0  0  0  0
   -0.3730   -1.7081    0.3157 C   0  0  0  0  0  0  0  0  0  0  0  0
   -1.6471   -2.0214    0.5549 N   0  0  0  0  0  0  0  0  0  0  0  0
  2  1  1  6
  2  3  1  0
  2  4  1  0
  4  5  1  0
  5  6  2  0
  5  7  1  0
  7  8  1  0
  8  9  1  0
  9 10  1  0
 10 11  2  0
 11 12  1  0
 12 13  2  0
 13 14  1  0
 14 15  2  0
 17 16  1  1
 17 18  1  0
 18 19  1  0
 19 20  1  0
 20 21  2  0
 21 22  1  0
 22 23  2  0
 17 24  1  0
 24 25  1  0
 25 26  2  0
 26 27  1  0
 27 28  2  0
 28 29  1  0
 29 30  2  0
 30 31  1  0
 31 32  1  0
 32 33  2  0
 33 34  1  0
 34 35  2  0
 35 36  1  0
 35 37  1  0
 37 38  2  0
 38 39  1  0
 30 40  1  0
 40 41  2  0
 40 42  1  0
 42 43  1  0
 42 44  1  0
 44 45  2  0
 15 10  1  0
 23 19  1  0
 45 25  1  0
 44 28  1  0
 38 32  1  0
M  END

