
     RDKit          3D

 14 14  0  0  0  0  0  0  0  0999 V2000
    3.9635   -0.1795    2.3480 C   0  0  0  0  0  0  0  0  0  0  0  0
    3.3320   -0.1134    0.7990 C   0  0  1  0  0  0  0  0  0  0  0  0
    2.6028   -1.4560    0.9716 O   0  0  0  0  0  0  0  0  0  0  0  0
    2.0009    0.7579    1.2879 C   0  0  0  0  0  0  0  0  0  0  0  0
    1.2716    0.9352    0.0164 C   0  0  0  0  0  0  0  0  0  0  0  0
    1.6847    0.4820   -1.0721 O   0  0  0  0  0  0  0  0  0  0  0  0
    0.0453    1.6464   -0.0019 N   0  0  0  0  0  0  0  0  0  0  0  0
   -0.7309    1.8621   -1.2162 C   0  0  0  0  0  0  0  0  0  0  0  0
   -1.1260    0.5552   -1.8105 C   0  0  0  0  0  0  0  0  0  0  0  0
   -1.9548   -0.2805   -0.9083 C   0  0  0  0  0  0  0  0  0  0  0  0
   -2.4233   -1.5266   -1.2708 C   0  0  0  0  0  0  0  0  0  0  0  0
   -3.1397   -2.0137   -0.2257 N   0  0  0  0  0  0  0  0  0  0  0  0
   -3.1300   -1.1209    0.7597 C   0  0  0  0  0  0  0  0  0  0  0  0
   -2.3960   -0.0595    0.3229 N   0  0  0  0  0  0  0  0  0  0  0  0
  2  1  1  1
  2  3  1  0
  2  4  1  0
  4  5  1  0
  5  6  2  0
  5  7  1  0
  7  8  1  0
  8  9  1  0
  9 10  1  0
 10 11  2  0
 11 12  1  0
 12 13  1  0
 13 14  2  0
 14 10  1  0
M  END

