
     RDKit          3D

 39 41  0  0  0  0  0  0  0  0999 V2000
    2.9691   -1.3279   -1.0124 C   0  0  0  0  0  0  0  0  0  0  0  0
    2.8417    0.1690   -0.7860 C   0  0  0  0  0  0  0  0  0  0  0  0
    1.7080    0.4508    0.0602 N   0  0  0  0  0  0  0  0  0  0  0  0
    0.4081    0.0527   -0.3743 C   0  0  0  0  0  0  0  0  0  0  0  0
    0.3049   -0.5293   -1.4805 O   0  0  0  0  0  0  0  0  0  0  0  0
   -0.7856    0.3262    0.4715 C   0  0  0  0  0  0  0  0  0  0  0  0
   -2.0479   -0.2873   -0.3919 C   0  0  1  0  0  0  0  0  0  0  0  0
   -3.1634    0.1481    0.7486 C   0  0  0  0  0  0  0  0  0  0  0  0
   -2.2349    0.9976   -1.1841 O   0  0  0  0  0  0  0  0  0  0  0  0
    3.4392   -0.4121    2.4524 C   0  0  0  0  0  0  0  0  0  0  0  0
    4.2195   -0.8311    1.0258 C   0  0  2  0  0  0  0  0  0  0  0  0
    5.6925   -0.3185    1.6311 C   0  0  0  0  0  0  0  0  0  0  0  0
    6.5372   -0.6231    0.4636 N   0  0  0  0  0  0  0  0  0  0  0  0
    6.7867    0.2045   -0.5221 N   0  0  0  0  0  0  0  0  0  0  0  0
    7.5855   -0.4211   -1.3902 C   0  0  0  0  0  0  0  0  0  0  0  0
    7.8174   -1.6426   -0.9160 N   0  0  0  0  0  0  0  0  0  0  0  0
    7.1611   -1.7394    0.2240 N   0  0  0  0  0  0  0  0  0  0  0  0
    3.9006    0.5763    0.3716 N   0  0  0  0  0  0  0  0  0  0  0  0
    2.5068    0.8631    0.2677 C   0  0  0  0  0  0  0  0  0  0  0  0
    2.1096    2.0235   -0.2688 N   0  0  0  0  0  0  0  0  0  0  0  0
    0.8238    2.3892   -0.4121 C   0  0  0  0  0  0  0  0  0  0  0  0
   -0.1845    1.5432    0.0078 C   0  0  0  0  0  0  0  0  0  0  0  0
   -1.5222    1.8713   -0.1167 C   0  0  0  0  0  0  0  0  0  0  0  0
   -2.4507    0.9560    0.3340 C   0  0  0  0  0  0  0  0  0  0  0  0
   -3.8219    1.1620    0.2676 O   0  0  0  0  0  0  0  0  0  0  0  0
   -4.6450    0.2982   -0.4498 C   0  0  0  0  0  0  0  0  0  0  0  0
   -4.1506   -0.7929   -1.1242 C   0  0  0  0  0  0  0  0  0  0  0  0
   -4.9515   -1.6564   -1.8382 C   0  0  0  0  0  0  0  0  0  0  0  0
   -6.3259   -1.4128   -1.8785 C   0  0  0  0  0  0  0  0  0  0  0  0
   -7.1419   -2.2492   -2.5760 F   0  0  0  0  0  0  0  0  0  0  0  0
   -6.8216   -0.3234   -1.2054 C   0  0  0  0  0  0  0  0  0  0  0  0
   -6.0035    0.5338   -0.4932 C   0  0  0  0  0  0  0  0  0  0  0  0
   -6.4794    1.6085    0.1728 F   0  0  0  0  0  0  0  0  0  0  0  0
   -2.0192   -0.2210    0.8775 C   0  0  0  0  0  0  0  0  0  0  0  0
   -2.8597   -1.0792    1.2995 O   0  0  0  0  0  0  0  0  0  0  0  0
   -0.7151   -0.5209    0.9895 N   0  0  0  0  0  0  0  0  0  0  0  0
   -0.2446   -1.7659    1.5641 C   0  0  0  0  0  0  0  0  0  0  0  0
    0.2198    0.3443    0.5622 C   0  0  0  0  0  0  0  0  0  0  0  0
    1.5375    0.0322    0.6797 N   0  0  0  0  0  0  0  0  0  0  0  0
  1  2  1  0
  2  3  1  0
  3  4  1  0
  4  5  2  0
  4  6  1  0
  6  7  1  0
  7  8  1  1
  7  9  1  0
 11 10  1  1
 11 12  1  0
 12 13  1  0
 13 14  1  0
 14 15  2  0
 15 16  1  0
 16 17  2  0
 11 18  1  0
 18 19  1  0
 19 20  2  0
 20 21  1  0
 21 22  2  0
 22 23  1  0
 23 24  2  0
 24 25  1  0
 25 26  1  0
 26 27  2  0
 27 28  1  0
 28 29  2  0
 29 30  1  0
 29 31  1  0
 31 32  2  0
 32 33  1  0
 24 34  1  0
 34 35  2  0
 34 36  1  0
 36 37  1  0
 36 38  1  0
 38 39  2  0
 17 13  1  0
 39 19  1  0
 38 22  1  0
 32 26  1  0
M  END

