
     RDKit          3D

 44 46  0  0  0  0  0  0  0  0999 V2000
    4.8823   -0.6397   -2.7798 C   0  0  0  0  0  0  0  0  0  0  0  0
    5.3212    0.1013   -1.3686 C   0  0  2  0  0  0  0  0  0  0  0  0
    4.7208   -1.1032   -0.4194 C   0  0  0  0  0  0  0  0  0  0  0  0
    5.0128   -0.6378    0.9362 N   0  0  0  0  0  0  0  0  0  0  0  0
    6.1073   -0.8873    1.6174 N   0  0  0  0  0  0  0  0  0  0  0  0
    6.0098   -0.2985    2.8071 C   0  0  0  0  0  0  0  0  0  0  0  0
    4.8366    0.3231    2.8583 N   0  0  0  0  0  0  0  0  0  0  0  0
    4.2483    0.1029    1.7102 N   0  0  0  0  0  0  0  0  0  0  0  0
    4.0404    0.9978   -1.2705 N   0  0  0  0  0  0  0  0  0  0  0  0
    2.7817    0.4107   -1.2448 C   0  0  0  0  0  0  0  0  0  0  0  0
    2.5767   -0.9262   -1.3002 N   0  0  0  0  0  0  0  0  0  0  0  0
    1.3254   -1.4617   -1.2723 C   0  0  0  0  0  0  0  0  0  0  0  0
    0.2322   -0.6409   -1.1860 C   0  0  0  0  0  0  0  0  0  0  0  0
   -1.0781   -1.0959   -1.1516 C   0  0  0  0  0  0  0  0  0  0  0  0
   -2.1498   -0.2371   -1.0644 C   0  0  0  0  0  0  0  0  0  0  0  0
   -3.4645   -0.6465   -1.0282 O   0  0  0  0  0  0  0  0  0  0  0  0
   -4.2093   -0.3040    0.1203 C   0  0  0  0  0  0  0  0  0  0  0  0
   -3.6437    0.4026    1.1648 C   0  0  0  0  0  0  0  0  0  0  0  0
   -4.3143    0.7653    2.3066 C   0  0  0  0  0  0  0  0  0  0  0  0
   -5.6348    0.4071    2.4288 C   0  0  0  0  0  0  0  0  0  0  0  0
   -6.3439    0.7451    3.5461 F   0  0  0  0  0  0  0  0  0  0  0  0
   -6.1972   -0.2990    1.3835 C   0  0  0  0  0  0  0  0  0  0  0  0
   -5.5267   -0.6611    0.2429 C   0  0  0  0  0  0  0  0  0  0  0  0
   -6.1017   -1.3545   -0.7693 F   0  0  0  0  0  0  0  0  0  0  0  0
   -1.8802    1.1093   -1.0115 C   0  0  0  0  0  0  0  0  0  0  0  0
   -2.8092    1.9601   -0.9316 O   0  0  0  0  0  0  0  0  0  0  0  0
   -0.5903    1.5731   -1.0445 N   0  0  0  0  0  0  0  0  0  0  0  0
   -0.3106    3.0016   -0.9879 C   0  0  0  0  0  0  0  0  0  0  0  0
    0.4460    0.7202   -1.1298 C   0  0  0  0  0  0  0  0  0  0  0  0
    1.7127    1.1814   -1.1619 N   0  0  0  0  0  0  0  0  0  0  0  0
    4.6034   -1.0539   -0.9170 N   0  0  0  0  0  0  0  0  0  0  0  0
    3.5473   -0.1252   -0.8959 C   0  0  0  0  0  0  0  0  0  0  0  0
    3.5070    0.7519   -0.0166 O   0  0  0  0  0  0  0  0  0  0  0  0
    2.4830   -0.1773   -1.9061 C   0  0  0  0  0  0  0  0  0  0  0  0
    1.4493    0.8900   -1.7200 C   0  0  0  0  0  0  0  0  0  0  0  0
    0.7677    0.8149   -0.4227 C   0  0  0  0  0  0  0  0  0  0  0  0
    1.0330   -0.0556    0.4293 O   0  0  0  0  0  0  0  0  0  0  0  0
   -0.2371    1.7694   -0.1166 N   0  0  0  0  0  0  0  0  0  0  0  0
   -0.9407    1.7342    1.1586 C   0  0  0  0  0  0  0  0  0  0  0  0
   -1.6289    0.3922    1.2337 C   0  0  0  0  0  0  0  0  0  0  0  0
   -2.5917    0.3125    0.0459 C   0  0  0  0  0  0  0  0  0  0  0  0
   -3.2712   -1.0366    0.1374 C   0  0  0  0  0  0  0  0  0  0  0  0
   -4.0325   -1.1832    1.4339 C   0  0  0  0  0  0  0  0  0  0  0  0
   -4.6886   -2.4474    1.5560 N   0  0  0  0  0  4  0  0  0  0  0  0
  2  1  1  6
  2  3  1  0
  3  4  1  0
  4  5  1  0
  5  6  2  0
  6  7  1  0
  7  8  2  0
  2  9  1  0
  9 10  1  0
 10 11  2  0
 11 12  1  0
 12 13  2  0
 13 14  1  0
 14 15  2  0
 15 16  1  0
 16 17  1  0
 17 18  2  0
 18 19  1  0
 19 20  2  0
 20 21  1  0
 20 22  1  0
 22 23  2  0
 23 24  1  0
 15 25  1  0
 25 26  2  0
 25 27  1  0
 27 28  1  0
 27 29  1  0
 29 30  2  0
 31 32  1  0
 32 33  2  0
 32 34  1  0
 34 35  1  0
 35 36  1  0
 36 37  2  0
 36 38  1  0
 38 39  1  0
 39 40  1  0
 40 41  1  0
 41 42  1  0
 42 43  1  0
 43 44  1  0
  8  4  1  0
 30 10  1  0
 29 13  1  0
 23 17  1  0
M  CHG  1  44   1
M  END

