
     RDKit          3D

 17 17  0  0  0  0  0  0  0  0999 V2000
    3.8356    2.3770   -0.6173 C   0  0  0  0  0  0  0  0  0  0  0  0
    4.6178    1.1122   -0.4528 C   0  0  0  0  0  0  0  0  0  0  0  0
    3.5793    0.0500    0.2910 C   0  0  2  0  0  0  0  0  0  0  0  0
    4.7046   -1.1516    0.3108 C   0  0  0  0  0  0  0  0  0  0  0  0
    2.9338   -0.4393   -1.1420 C   0  0  0  0  0  0  0  0  0  0  0  0
    1.9450   -1.4157   -0.8203 N   0  0  0  0  0  0  0  0  0  0  0  0
    0.7972   -1.1288    0.0172 C   0  0  0  0  0  0  0  0  0  0  0  0
    0.7628    0.0594    0.4276 O   0  0  0  0  0  0  0  0  0  0  0  0
   -0.1943   -2.1753    0.3178 C   0  0  0  0  0  0  0  0  0  0  0  0
   -1.3324   -1.7119    1.1451 C   0  0  0  0  0  0  0  0  0  0  0  0
   -2.0979   -0.6388    0.4689 C   0  0  0  0  0  0  0  0  0  0  0  0
   -3.1520   -0.9659   -0.3955 C   0  0  0  0  0  0  0  0  0  0  0  0
   -3.8956    0.0027   -1.0350 C   0  0  0  0  0  0  0  0  0  0  0  0
   -3.6387    1.3463   -0.8557 C   0  0  0  0  0  0  0  0  0  0  0  0
   -4.4050    2.2980   -1.5136 O   0  0  0  0  0  0  0  0  0  0  0  0
   -2.6022    1.6757   -0.0060 C   0  0  0  0  0  0  0  0  0  0  0  0
   -1.8577    0.7060    0.6343 C   0  0  0  0  0  0  0  0  0  0  0  0
  1  2  1  0
  2  3  1  0
  3  4  1  6
  3  5  1  0
  5  6  1  0
  6  7  1  0
  7  8  2  0
  7  9  1  0
  9 10  1  0
 10 11  1  0
 11 12  2  0
 12 13  1  0
 13 14  2  0
 14 15  1  0
 14 16  1  0
 16 17  2  0
 17 11  1  0
M  END

