
     RDKit          3D

  9  8  0  0  0  0  0  0  0  0999 V2000
    3.5019   -0.8897   -0.1430 C   0  0  0  0  0  0  0  0  0  0  0  0
    2.3863    0.0981    0.0090 C   0  0  0  0  0  0  0  0  0  0  0  0
    1.1205   -0.6315    0.2868 C   0  0  0  0  0  0  0  0  0  0  0  0
    1.0386   -1.8641    0.3724 O   0  0  0  0  0  0  0  0  0  0  0  0
   -0.0504    0.1309    0.4618 N   0  0  0  0  0  0  0  0  0  0  0  0
   -1.3141   -0.4858    0.7327 C   0  0  0  0  0  0  0  0  0  0  0  0
   -2.3402    0.6472    0.8595 C   0  0  0  0  0  0  0  0  0  0  0  0
   -1.9207    1.5517    1.9905 C   0  0  0  0  0  0  0  0  0  0  0  0
   -2.4219    1.4431   -0.4268 C   0  0  0  0  0  0  0  0  0  0  0  0
  1  2  1  0
  2  3  1  0
  3  4  2  0
  3  5  1  0
  5  6  1  0
  6  7  1  0
  7  8  1  0
  7  9  1  0
M  END

