
     RDKit          3D

 12 11  0  0  0  0  0  0  0  0999 V2000
   -4.5548    1.0435   -0.3222 C   0  0  0  0  0  0  0  0  0  0  0  0
   -3.2436    0.3152    0.4663 C   0  0  1  0  0  0  0  0  0  0  0  0
   -3.5954   -1.0665   -0.1683 O   0  0  0  0  0  0  0  0  0  0  0  0
   -2.2086    0.6882   -0.7937 C   0  0  0  0  0  0  0  0  0  0  0  0
   -0.9242    0.1194   -0.3085 C   0  0  0  0  0  0  0  0  0  0  0  0
   -0.7484   -0.4670    0.7678 O   0  0  0  0  0  0  0  0  0  0  0  0
    0.1938    0.2707   -1.1701 N   0  0  0  0  0  0  0  0  0  0  0  0
    1.5019   -0.2162   -0.8596 C   0  0  0  0  0  0  0  0  0  0  0  0
    2.0855    0.3694    0.3904 C   0  0  0  0  0  0  0  0  0  0  0  0
    3.4308   -0.2083    0.6034 C   0  0  0  0  0  0  0  0  0  0  0  0
    4.1535    0.1933    1.7036 O   0  0  0  0  0  1  0  0  0  0  0  0
    3.9094   -1.0416   -0.1901 O   0  0  0  0  0  0  0  0  0  0  0  0
  2  1  1  6
  2  3  1  0
  2  4  1  0
  4  5  1  0
  5  6  2  0
  5  7  1  0
  7  8  1  0
  8  9  1  0
  9 10  1  0
 10 11  1  0
 10 12  2  0
M  RAD  1  11   2
M  END

