
     RDKit          3D

 39 42  0  0  0  0  0  0  0  0999 V2000
    3.3770   -0.3598   -0.0209 C   0  0  0  0  0  0  0  0  0  0  0  0
    2.0901   -0.1025    0.5786 N   0  0  0  0  0  0  0  0  0  0  0  0
    0.9722    0.2449   -0.1952 C   0  0  0  0  0  0  0  0  0  0  0  0
    0.9985    0.3547   -1.4091 O   0  0  0  0  0  0  0  0  0  0  0  0
   -0.3905    0.5002    0.6180 C   0  0  2  0  0  0  0  0  0  0  0  0
   -0.8422   -1.1039    0.5528 C   0  0  0  0  0  0  0  0  0  0  0  0
   -2.3586   -0.8728    0.5491 C   0  0  0  0  0  0  0  0  0  0  0  0
   -2.5646    0.5001   -0.0291 C   0  0  0  0  0  0  0  0  0  0  0  0
   -1.2817    0.8390   -0.6442 N   0  0  0  0  0  0  0  0  0  0  0  0
    4.0470   -0.0704   -0.3195 C   0  0  0  0  0  0  0  0  0  0  0  0
    4.2451    0.3110    1.2529 C   0  0  2  0  0  0  0  0  0  0  0  0
    5.7748   -0.2905    1.3165 C   0  0  0  0  0  0  0  0  0  0  0  0
    6.5310    0.4556    0.3534 N   0  0  0  0  0  0  0  0  0  0  0  0
    6.6659    0.1086   -0.9137 N   0  0  0  0  0  0  0  0  0  0  0  0
    7.4358    1.0373   -1.5087 C   0  0  0  0  0  0  0  0  0  0  0  0
    7.7391    1.9273   -0.5470 N   0  0  0  0  0  0  0  0  0  0  0  0
    7.1778    1.5552    0.5821 N   0  0  0  0  0  0  0  0  0  0  0  0
    3.6118   -1.0188    1.7644 N   0  0  0  0  0  0  0  0  0  0  0  0
    2.2683   -1.1907    1.3374 C   0  0  0  0  0  0  0  0  0  0  0  0
    1.6284   -2.3102    1.7262 N   0  0  0  0  0  0  0  0  0  0  0  0
    0.3443   -2.5428    1.3570 C   0  0  0  0  0  0  0  0  0  0  0  0
   -0.3443   -1.6430    0.5742 C   0  0  0  0  0  0  0  0  0  0  0  0
   -1.6720   -1.8544    0.1758 C   0  0  0  0  0  0  0  0  0  0  0  0
   -2.3185   -0.9251   -0.6074 C   0  0  0  0  0  0  0  0  0  0  0  0
   -3.6192   -1.0968   -1.0179 O   0  0  0  0  0  0  0  0  0  0  0  0
   -4.6502   -0.2235   -0.7085 C   0  0  0  0  0  0  0  0  0  0  0  0
   -4.3722    0.8878    0.0550 C   0  0  0  0  0  0  0  0  0  0  0  0
   -5.3316    1.8100    0.4117 C   0  0  0  0  0  0  0  0  0  0  0  0
   -6.6225    1.5954   -0.0235 C   0  0  0  0  0  0  0  0  0  0  0  0
   -7.6262    2.4799    0.2992 F   0  0  0  0  0  0  0  0  0  0  0  0
   -6.8988    0.4805   -0.7888 C   0  0  0  0  0  0  0  0  0  0  0  0
   -5.9243   -0.4220   -1.1297 C   0  0  0  0  0  0  0  0  0  0  0  0
   -6.2715   -1.4935   -1.8842 F   0  0  0  0  0  0  0  0  0  0  0  0
   -1.6261    0.1962   -0.9768 C   0  0  0  0  0  0  0  0  0  0  0  0
   -2.1720    1.0559   -1.6809 O   0  0  0  0  0  0  0  0  0  0  0  0
   -0.3334    0.4038   -0.5899 N   0  0  0  0  0  0  0  0  0  0  0  0
    0.4005    1.5869   -0.9784 C   0  0  0  0  0  0  0  0  0  0  0  0
    0.3202   -0.4908    0.1762 C   0  0  0  0  0  0  0  0  0  0  0  0
    1.5929   -0.3192    0.5758 N   0  0  0  0  0  0  0  0  0  0  0  0
  1  2  1  0
  2  3  1  0
  3  4  2  0
  5  3  1  6
  5  6  1  0
  6  7  1  0
  7  8  1  0
  8  9  1  0
 11 10  1  6
 11 12  1  0
 12 13  1  0
 13 14  1  0
 14 15  2  0
 15 16  1  0
 16 17  2  0
 11 18  1  0
 18 19  1  0
 19 20  2  0
 20 21  1  0
 21 22  2  0
 22 23  1  0
 23 24  2  0
 24 25  1  0
 25 26  1  0
 26 27  2  0
 27 28  1  0
 28 29  2  0
 29 30  1  0
 29 31  1  0
 31 32  2  0
 32 33  1  0
 24 34  1  0
 34 35  2  0
 34 36  1  0
 36 37  1  0
 36 38  1  0
 38 39  2  0
  9  5  1  0
 17 13  1  0
 39 19  1  0
 38 22  1  0
 32 26  1  0
M  END

