
     RDKit          3D

 16 16  0  0  0  0  0  0  0  0999 V2000
    4.4047    0.6314    2.5352 N   0  0  0  0  0  4  0  0  0  0  0  0
    3.1272   -0.0512    2.4503 C   0  0  0  0  0  0  0  0  0  0  0  0
    2.1906    0.7492    1.5691 C   0  0  0  0  0  0  0  0  0  0  0  0
    2.7253    0.9177    0.1748 C   0  0  0  0  0  0  0  0  0  0  0  0
    2.9472   -0.3954   -0.5321 C   0  0  0  0  0  0  0  0  0  0  0  0
    1.6742   -1.2021   -0.6669 C   0  0  0  0  0  0  0  0  0  0  0  0
    0.6543   -0.4495   -1.4436 C   0  0  0  0  0  0  0  0  0  0  0  0
    0.9404    0.6954   -1.8739 O   0  0  0  0  0  0  0  0  0  0  0  0
   -0.6061   -1.0763   -1.6593 N   0  0  0  0  0  0  0  0  0  0  0  0
   -1.5885   -0.3291   -2.4181 C   0  0  0  0  0  0  0  0  0  0  0  0
   -1.9145    0.9722   -1.7299 C   0  0  0  0  0  0  0  0  0  0  0  0
   -2.4702    0.7425   -0.3621 C   0  0  0  0  0  0  0  0  0  0  0  0
   -2.8658    1.7234    0.5207 C   0  0  0  0  0  0  0  0  0  0  0  0
   -3.3203    1.1604    1.6694 N   0  0  0  0  0  0  0  0  0  0  0  0
   -3.2044   -0.1612    1.4930 C   0  0  0  0  0  0  0  0  0  0  0  0
   -2.6939   -0.4214    0.2736 N   0  0  0  0  0  0  0  0  0  0  0  0
  1  2  1  0
  2  3  1  0
  3  4  1  0
  4  5  1  0
  5  6  1  0
  6  7  1  0
  7  8  2  0
  7  9  1  0
  9 10  1  0
 10 11  1  0
 11 12  1  0
 12 13  2  0
 13 14  1  0
 14 15  1  0
 15 16  2  0
 16 12  1  0
M  CHG  1   1   1
M  END

