
     RDKit          3D

 16 16  0  0  0  0  0  0  0  0999 V2000
    3.7848   -0.1449    2.7475 O   0  0  0  0  0  1  0  0  0  0  0  0
    3.5699   -0.1814    1.3646 C   0  0  0  0  0  0  0  0  0  0  0  0
    3.5440   -1.2412    0.6931 O   0  0  0  0  0  0  0  0  0  0  0  0
    3.3618    1.1558    0.7072 C   0  0  0  0  0  0  0  0  0  0  0  0
    2.1017    1.0609   -0.1321 C   0  0  0  0  0  0  0  0  0  0  0  0
    2.2724   -0.0473   -1.1784 C   0  0  0  0  0  0  0  0  0  0  0  0
    1.0848   -0.2008   -1.9728 N   0  0  0  0  0  0  0  0  0  0  0  0
   -0.1372   -0.5531   -1.2634 C   0  0  0  0  0  0  0  0  0  0  0  0
   -0.0904   -0.7086   -0.0133 O   0  0  0  0  0  0  0  0  0  0  0  0
   -1.3411   -0.6975   -2.0958 C   0  0  0  0  0  0  0  0  0  0  0  0
   -2.5474   -1.0132   -1.2835 C   0  0  0  0  0  0  0  0  0  0  0  0
   -2.8725    0.0342   -0.3111 C   0  0  0  0  0  0  0  0  0  0  0  0
   -2.4460    0.1089    1.0042 C   0  0  0  0  0  0  0  0  0  0  0  0
   -2.9462    1.1994    1.5844 N   0  0  0  0  0  0  0  0  0  0  0  0
   -3.6901    1.8240    0.6491 C   0  0  0  0  0  0  0  0  0  0  0  0
   -3.6484    1.1226   -0.4996 N   0  0  0  0  0  0  0  0  0  0  0  0
  1  2  1  0
  2  3  2  0
  2  4  1  0
  4  5  1  0
  5  6  1  0
  6  7  1  0
  7  8  1  0
  8  9  2  0
  8 10  1  0
 10 11  1  0
 11 12  1  0
 12 13  2  0
 13 14  1  0
 14 15  1  0
 15 16  2  0
 16 12  1  0
M  RAD  1   1   2
M  END

