
     RDKit          3D

 12 12  0  0  0  0  0  0  0  0999 V2000
    3.0397    1.8236   -0.8466 O   0  0  0  0  0  1  0  0  0  0  0  0
    3.1993    0.4769   -0.6087 C   0  0  0  0  0  0  0  0  0  0  0  0
    4.1961   -0.1199   -1.0748 O   0  0  0  0  0  0  0  0  0  0  0  0
    2.1961   -0.2467    0.1894 C   0  0  0  0  0  0  0  0  0  0  0  0
    0.8265    0.1576   -0.3028 C   0  0  0  0  0  0  0  0  0  0  0  0
   -0.1630   -0.6015    0.5111 C   0  0  0  0  0  0  0  0  0  0  0  0
    0.2092   -1.6128    1.1797 O   0  0  0  0  0  0  0  0  0  0  0  0
   -1.5250   -0.1988    0.5404 N   0  0  0  0  0  0  0  0  0  0  0  0
   -2.5840   -0.8396    1.2397 C   0  0  0  0  0  0  0  0  0  0  0  0
   -3.8054   -0.6034    0.3830 C   0  0  0  0  0  0  0  0  0  0  0  0
   -3.5348    0.8113   -0.1480 C   0  0  0  0  0  0  0  0  0  0  0  0
   -2.0548    0.9532   -0.1384 C   0  0  0  0  0  0  0  0  0  0  0  0
  1  2  1  0
  2  3  2  0
  2  4  1  0
  4  5  1  0
  5  6  1  0
  6  7  2  0
  6  8  1  0
  8  9  1  0
  9 10  1  0
 10 11  1  0
 11 12  1  0
 12  8  1  0
M  RAD  1   1   2
M  END

