
     RDKit          3D

 10  9  0  0  0  0  0  0  0  0999 V2000
    3.6135    0.7249    1.0002 C   0  0  0  0  0  0  0  0  0  0  0  0
    3.4851   -0.2236   -0.1593 C   0  0  0  0  0  0  0  0  0  0  0  0
    2.1823   -0.8891   -0.1816 N   0  0  0  0  0  0  0  0  0  0  0  0
    0.9843   -0.1209   -0.2858 C   0  0  0  0  0  0  0  0  0  0  0  0
    1.1247    1.1245   -0.3545 O   0  0  0  0  0  0  0  0  0  0  0  0
   -0.3513   -0.7488   -0.3119 C   0  0  0  0  0  0  0  0  0  0  0  0
   -1.3895    0.3248   -0.4272 C   0  0  0  0  0  0  0  0  0  0  0  0
   -2.7943   -0.2076   -0.4625 C   0  0  0  0  0  0  0  0  0  0  0  0
   -3.1327   -0.9973    0.8049 C   0  0  0  0  0  0  0  0  0  0  0  0
   -3.7221    1.0132   -0.4621 C   0  0  0  0  0  0  0  0  0  0  0  0
  1  2  1  0
  2  3  1  0
  3  4  1  0
  4  5  2  0
  4  6  1  0
  6  7  1  0
  7  8  1  0
  8  9  1  0
  8 10  1  0
M  END

