
     RDKit          3D

 13 13  0  0  0  0  0  0  0  0999 V2000
   -2.9766   -1.4666    1.5778 C   0  0  0  0  0  0  0  0  0  0  0  0
   -3.7777   -0.6655    0.5727 C   0  0  0  0  0  0  0  0  0  0  0  0
   -2.9779   -0.4180   -0.6338 N   0  0  0  0  0  0  0  0  0  0  0  0
   -1.7526    0.2924   -0.5724 C   0  0  0  0  0  0  0  0  0  0  0  0
   -1.3888    0.6957    0.5547 O   0  0  0  0  0  0  0  0  0  0  0  0
   -0.9114    0.5684   -1.7510 C   0  0  0  0  0  0  0  0  0  0  0  0
    0.3530    1.2880   -1.4851 C   0  0  0  0  0  0  0  0  0  0  0  0
    1.3097    0.6174   -0.5897 C   0  0  0  0  0  0  0  0  0  0  0  0
    1.3130    0.8318    0.7629 C   0  0  0  0  0  0  0  0  0  0  0  0
    2.2584    0.1475    1.5124 C   0  0  0  0  0  0  0  0  0  0  0  0
    3.1689   -0.7158    0.9611 C   0  0  0  0  0  0  0  0  0  0  0  0
    3.1548   -0.9211   -0.3927 C   0  0  0  0  0  0  0  0  0  0  0  0
    2.2271   -0.2540   -1.1554 C   0  0  0  0  0  0  0  0  0  0  0  0
  1  2  1  0
  2  3  1  0
  3  4  1  0
  4  5  2  0
  4  6  1  0
  6  7  1  0
  7  8  1  0
  8  9  2  0
  9 10  1  0
 10 11  2  0
 11 12  1  0
 12 13  2  0
 13  8  1  0
M  END

