
     RDKit          3D

  8  7  0  0  0  0  0  0  0  0999 V2000
    2.7677   -0.7340   -0.2042 C   0  0  0  0  0  0  0  0  0  0  0  0
    2.3582    0.7130   -0.4416 C   0  0  0  0  0  0  0  0  0  0  0  0
    0.9927    0.6915   -0.9862 N   0  0  0  0  0  0  0  0  0  0  0  0
   -0.0592    0.1256   -0.2464 C   0  0  0  0  0  0  0  0  0  0  0  0
    0.1842   -0.3588    0.8812 O   0  0  0  0  0  0  0  0  0  0  0  0
   -1.4602    0.0724   -0.7394 C   0  0  0  0  0  0  0  0  0  0  0  0
   -2.3786   -0.5898    0.2611 C   0  0  0  0  0  0  0  0  0  0  0  0
   -2.4048    0.0800    1.4756 O   0  0  0  0  0  0  0  0  0  0  0  0
  1  2  1  0
  2  3  1  0
  3  4  1  0
  4  5  2  0
  4  6  1  0
  6  7  1  0
  7  8  1  0
M  END

