
     RDKit          3D

  8  7  0  0  0  0  0  0  0  0999 V2000
    2.6189   -0.9792   -0.2485 C   0  0  0  0  0  0  0  0  0  0  0  0
    2.4174    0.3696    0.3791 C   0  0  0  0  0  0  0  0  0  0  0  0
    1.2221    1.0211   -0.0933 N   0  0  0  0  0  0  0  0  0  0  0  0
   -0.0162    0.4018    0.1083 C   0  0  0  0  0  0  0  0  0  0  0  0
   -0.0477   -0.7166    0.7020 O   0  0  0  0  0  0  0  0  0  0  0  0
   -1.3135    0.9715   -0.3311 C   0  0  0  0  0  0  0  0  0  0  0  0
   -2.4626    0.0932    0.0180 C   0  0  0  0  0  0  0  0  0  0  0  0
   -2.4183   -1.1613   -0.5345 O   0  0  0  0  0  0  0  0  0  0  0  0
  1  2  1  0
  2  3  1  0
  3  4  1  0
  4  5  2  0
  4  6  1  0
  6  7  1  0
  7  8  1  0
M  END

