
     RDKit          3D

 45 47  0  0  0  0  0  0  0  0999 V2000
    3.3498   -1.8752    1.4757 C   0  0  0  0  0  0  0  0  0  0  0  0
    4.1742   -1.1430    0.2352 C   0  0  2  0  0  0  0  0  0  0  0  0
    5.5392   -0.9176    1.1861 C   0  0  0  0  0  0  0  0  0  0  0  0
    6.4096   -0.2680    0.2521 N   0  0  0  0  0  0  0  0  0  0  0  0
    7.2674   -0.8523   -0.5791 N   0  0  0  0  0  0  0  0  0  0  0  0
    7.8733    0.1367   -1.2684 C   0  0  0  0  0  0  0  0  0  0  0  0
    7.3811    1.3176   -0.8530 N   0  0  0  0  0  0  0  0  0  0  0  0
    6.4918    1.0406    0.0730 N   0  0  0  0  0  0  0  0  0  0  0  0
    3.6113    0.2833    0.5678 N   0  0  0  0  0  0  0  0  0  0  0  0
    2.2067    0.3335    0.4880 C   0  0  0  0  0  0  0  0  0  0  0  0
    1.5245    1.4879    0.7422 N   0  0  0  0  0  0  0  0  0  0  0  0
    0.1908    1.4816    0.6525 C   0  0  0  0  0  0  0  0  0  0  0  0
   -0.5488    0.3825    0.3188 C   0  0  0  0  0  0  0  0  0  0  0  0
   -1.9171    0.3333    0.2157 C   0  0  0  0  0  0  0  0  0  0  0  0
   -2.5324   -0.8600   -0.1343 C   0  0  0  0  0  0  0  0  0  0  0  0
   -3.9054   -0.9787   -0.2557 O   0  0  0  0  0  0  0  0  0  0  0  0
   -4.7522    0.0909   -0.0343 C   0  0  0  0  0  0  0  0  0  0  0  0
   -5.7292    0.0730    0.9403 C   0  0  0  0  0  0  0  0  0  0  0  0
   -6.5745    1.1415    1.1609 C   0  0  0  0  0  0  0  0  0  0  0  0
   -6.4669    2.2859    0.3971 C   0  0  0  0  0  0  0  0  0  0  0  0
   -7.2966    3.3417    0.6095 F   0  0  0  0  0  0  0  0  0  0  0  0
   -5.4915    2.3113   -0.5803 C   0  0  0  0  0  0  0  0  0  0  0  0
   -4.6481    1.2369   -0.7956 C   0  0  0  0  0  0  0  0  0  0  0  0
   -3.6841    1.2469   -1.7529 F   0  0  0  0  0  0  0  0  0  0  0  0
   -1.7790   -1.9902   -0.3775 C   0  0  0  0  0  0  0  0  0  0  0  0
   -2.3075   -3.0888   -0.6971 O   0  0  0  0  0  0  0  0  0  0  0  0
   -0.4409   -1.9144   -0.2694 N   0  0  0  0  0  0  0  0  0  0  0  0
    0.3656   -3.1060   -0.5251 C   0  0  0  0  0  0  0  0  0  0  0  0
    0.1758   -0.7733    0.0671 C   0  0  0  0  0  0  0  0  0  0  0  0
    1.5131   -0.7575    0.1594 N   0  0  0  0  0  0  0  0  0  0  0  0
    5.2820    1.4873    0.4971 N   0  0  0  0  0  0  0  0  0  0  0  0
    4.1683    0.6103    0.5108 C   0  0  0  0  0  0  0  0  0  0  0  0
    3.6383    0.2784    1.6134 O   0  0  0  0  0  0  0  0  0  0  0  0
    3.6717    0.1164   -0.8006 C   0  0  0  0  0  0  0  0  0  0  0  0
    2.4928   -0.7910   -0.5134 C   0  0  0  0  0  0  0  0  0  0  0  0
    1.4554    0.0191    0.1952 C   0  0  0  0  0  0  0  0  0  0  0  0
    0.2560   -0.7556    0.5295 C   0  0  0  0  0  0  0  0  0  0  0  0
    0.2141   -1.9705    0.2044 O   0  0  0  0  0  0  0  0  0  0  0  0
   -0.8186   -0.1182    1.2065 N   0  0  0  0  0  0  0  0  0  0  0  0
   -1.9806   -0.9639    1.5034 C   0  0  0  0  0  0  0  0  0  0  0  0
   -2.4847   -1.4535    0.1474 C   0  0  0  0  0  0  0  0  0  0  0  0
   -2.8486   -0.2207   -0.6483 C   0  0  0  0  0  0  0  0  0  0  0  0
   -3.9237    0.5299    0.1001 C   0  0  0  0  0  0  0  0  0  0  0  0
   -4.3081    1.7746   -0.6790 C   0  0  0  0  0  0  0  0  0  0  0  0
   -4.8143    1.4576   -1.9960 N   0  0  0  0  0  4  0  0  0  0  0  0
  2  1  1  1
  2  3  1  0
  3  4  1  0
  4  5  1  0
  5  6  2  0
  6  7  1  0
  7  8  2  0
  2  9  1  0
  9 10  1  0
 10 11  2  0
 11 12  1  0
 12 13  2  0
 13 14  1  0
 14 15  2  0
 15 16  1  0
 16 17  1  0
 17 18  2  0
 18 19  1  0
 19 20  2  0
 20 21  1  0
 20 22  1  0
 22 23  2  0
 23 24  1  0
 15 25  1  0
 25 26  2  0
 25 27  1  0
 27 28  1  0
 27 29  1  0
 29 30  2  0
 31 32  1  0
 32 33  2  0
 32 34  1  0
 34 35  1  0
 35 36  1  0
 36 37  1  0
 37 38  2  0
 37 39  1  0
 39 40  1  0
 40 41  1  0
 41 42  1  0
 42 43  1  0
 43 44  1  0
 44 45  1  0
  8  4  1  0
 30 10  1  0
 29 13  1  0
 23 17  1  0
M  CHG  1  45   1
M  END

