
     RDKit          3D

 43 45  0  0  0  0  0  0  0  0999 V2000
    3.6483    1.9024   -1.2929 C   0  0  0  0  0  0  0  0  0  0  0  0
    2.6270    0.7906   -1.1602 C   0  0  0  0  0  0  0  0  0  0  0  0
    2.3856    0.7915    0.4631 C   0  0  2  0  0  0  0  0  0  0  0  0
    3.9667    0.4583    0.7641 C   0  0  0  0  0  0  0  0  0  0  0  0
    1.9491   -0.7645    0.5515 C   0  0  0  0  0  0  0  0  0  0  0  0
    0.8153   -0.9891   -0.2352 N   0  0  0  0  0  0  0  0  0  0  0  0
   -0.4623   -0.3908   -0.1187 C   0  0  0  0  0  0  0  0  0  0  0  0
   -0.5871    0.4480    0.8110 O   0  0  0  0  0  0  0  0  0  0  0  0
   -1.5229   -0.7803   -1.0659 C   0  0  0  0  0  0  0  0  0  0  0  0
   -2.7839   -0.0346   -0.7030 C   0  0  0  0  0  0  0  0  0  0  0  0
   -3.1945   -0.3961    0.6649 C   0  0  0  0  0  0  0  0  0  0  0  0
   -4.3227    0.1985    1.2176 O   0  0  0  0  0  1  0  0  0  0  0  0
   -2.5187   -1.2337    1.3068 O   0  0  0  0  0  0  0  0  0  0  0  0
    5.8079   -1.2804    0.3596 C   0  0  0  0  0  0  0  0  0  0  0  0
    4.4629   -0.3363   -0.0103 C   0  0  2  0  0  0  0  0  0  0  0  0
    4.3757    0.3645    1.5128 C   0  0  0  0  0  0  0  0  0  0  0  0
    5.5788    1.0436    1.7463 N   0  0  0  0  0  0  0  0  0  0  0  0
    5.8418    2.3053    1.4490 N   0  0  0  0  0  0  0  0  0  0  0  0
    7.1028    2.5919    1.8269 C   0  0  0  0  0  0  0  0  0  0  0  0
    7.5913    1.4567    2.3632 N   0  0  0  0  0  0  0  0  0  0  0  0
    6.6606    0.5271    2.3090 N   0  0  0  0  0  0  0  0  0  0  0  0
    3.4668   -1.5003    0.3844 N   0  0  0  0  0  0  0  0  0  0  0  0
    2.0893   -1.1866    0.2400 C   0  0  0  0  0  0  0  0  0  0  0  0
    1.7486    0.0333   -0.2056 N   0  0  0  0  0  0  0  0  0  0  0  0
    0.4459    0.4023   -0.3682 C   0  0  0  0  0  0  0  0  0  0  0  0
   -0.5695   -0.4752   -0.0767 C   0  0  0  0  0  0  0  0  0  0  0  0
   -1.9088   -0.1772   -0.2146 C   0  0  0  0  0  0  0  0  0  0  0  0
   -2.8856   -1.1055    0.0959 C   0  0  0  0  0  0  0  0  0  0  0  0
   -4.2378   -0.8419   -0.0299 O   0  0  0  0  0  0  0  0  0  0  0  0
   -4.5965    0.4229   -0.4921 C   0  0  0  0  0  0  0  0  0  0  0  0
   -5.3672    1.2474    0.2818 C   0  0  0  0  0  0  0  0  0  0  0  0
   -5.7107    2.4921   -0.1918 C   0  0  0  0  0  0  0  0  0  0  0  0
   -5.2741    2.8980   -1.4449 C   0  0  0  0  0  0  0  0  0  0  0  0
   -5.6134    4.1201   -1.9061 F   0  0  0  0  0  0  0  0  0  0  0  0
   -4.4960    2.0461   -2.2082 C   0  0  0  0  0  0  0  0  0  0  0  0
   -4.1538    0.8004   -1.7308 C   0  0  0  0  0  0  0  0  0  0  0  0
   -3.3898    0.0136   -2.5267 F   0  0  0  0  0  0  0  0  0  0  0  0
   -2.4916   -2.3501    0.5517 C   0  0  0  0  0  0  0  0  0  0  0  0
   -3.3756   -3.2221    0.8442 O   0  0  0  0  0  0  0  0  0  0  0  0
   -1.1801   -2.6145    0.6769 N   0  0  0  0  0  0  0  0  0  0  0  0
   -0.8006   -3.9240    1.1556 C   0  0  0  0  0  0  0  0  0  0  0  0
   -0.2211   -1.7216    0.3786 C   0  0  0  0  0  0  0  0  0  0  0  0
    1.0999   -2.0298    0.5198 N   0  0  0  0  0  0  0  0  0  0  0  0
  1  2  1  0
  2  3  1  0
  3  4  1  1
  3  5  1  0
  5  6  1  0
  6  7  1  0
  7  8  2  0
  7  9  1  0
  9 10  1  0
 10 11  1  0
 11 12  1  0
 11 13  2  0
 15 14  1  1
 15 16  1  0
 16 17  1  0
 17 18  1  0
 18 19  2  0
 19 20  1  0
 20 21  2  0
 15 22  1  0
 22 23  1  0
 23 24  2  0
 24 25  1  0
 25 26  2  0
 26 27  1  0
 27 28  2  0
 28 29  1  0
 29 30  1  0
 30 31  2  0
 31 32  1  0
 32 33  2  0
 33 34  1  0
 33 35  1  0
 35 36  2  0
 36 37  1  0
 28 38  1  0
 38 39  2  0
 38 40  1  0
 40 41  1  0
 40 42  1  0
 42 43  2  0
 21 17  1  0
 43 23  1  0
 42 26  1  0
 36 30  1  0
M  RAD  1  12   2
M  END

