
     RDKit          3D

 13 12  0  0  0  0  0  0  0  0999 V2000
    4.8477    0.2896   -1.3622 C   0  0  0  0  0  0  0  0  0  0  0  0
    3.6347    0.2469   -0.4831 C   0  0  0  0  0  0  0  0  0  0  0  0
    2.4405    0.9348   -1.0558 C   0  0  0  0  0  0  0  0  0  0  0  0
    3.3576   -1.1023    0.0897 C   0  0  0  0  0  0  0  0  0  0  0  0
    2.1172   -1.0139    0.9521 C   0  0  0  0  0  0  0  0  0  0  0  0
    0.9854   -0.5746    0.1232 N   0  0  0  0  0  0  0  0  0  0  0  0
   -0.3012   -0.4130    0.7028 C   0  0  0  0  0  0  0  0  0  0  0  0
   -0.4949   -0.6402    1.9233 O   0  0  0  0  0  0  0  0  0  0  0  0
   -1.4435    0.0309   -0.1364 C   0  0  0  0  0  0  0  0  0  0  0  0
   -2.7008    0.1300    0.6952 C   0  0  0  0  0  0  0  0  0  0  0  0
   -3.7996    0.5734   -0.1855 C   0  0  0  0  0  0  0  0  0  0  0  0
   -5.0780    0.7497    0.3196 O   0  0  0  0  0  1  0  0  0  0  0  0
   -3.5651    0.7887   -1.3941 O   0  0  0  0  0  0  0  0  0  0  0  0
  1  2  1  0
  2  3  1  0
  2  4  1  0
  4  5  1  0
  5  6  1  0
  6  7  1  0
  7  8  2  0
  7  9  1  0
  9 10  1  0
 10 11  1  0
 11 12  1  0
 11 13  2  0
M  RAD  1  12   2
M  END

