
     RDKit          3D

 41 44  0  0  0  0  0  0  0  0999 V2000
    3.0378    0.3748   -0.3965 C   0  0  0  0  0  0  0  0  0  0  0  0
    2.5357    0.0529    1.0197 C   0  0  0  0  0  0  0  0  0  0  0  0
    3.3796   -1.1234    1.4882 C   0  0  0  0  0  0  0  0  0  0  0  0
    1.1382   -0.4501    0.8633 C   0  0  0  0  0  0  0  0  0  0  0  0
    0.2224    0.5168    0.2395 C   0  0  0  0  0  0  0  0  0  0  0  0
    0.6452    1.6337   -0.1013 O   0  0  0  0  0  0  0  0  0  0  0  0
   -1.1168    0.1657    0.0373 N   0  0  0  0  0  0  0  0  0  0  0  0
   -2.1166    1.0249   -0.5648 C   0  0  0  0  0  0  0  0  0  0  0  0
   -2.9044   -0.0014   -1.3863 C   0  0  0  0  0  0  0  0  0  0  0  0
   -3.0745   -1.1098   -0.3754 C   0  0  0  0  0  0  0  0  0  0  0  0
   -1.7465   -1.0840    0.3785 C   0  0  0  0  0  0  0  0  0  0  0  0
    4.9235    0.8020    0.6836 C   0  0  0  0  0  0  0  0  0  0  0  0
    4.8880   -0.5666    1.6001 C   0  0  2  0  0  0  0  0  0  0  0  0
    4.1992   -1.4824    0.4290 C   0  0  0  0  0  0  0  0  0  0  0  0
    5.1956   -1.3832   -0.6252 N   0  0  0  0  0  0  0  0  0  0  0  0
    6.2338   -2.1746   -0.8342 N   0  0  0  0  0  0  0  0  0  0  0  0
    6.9010   -1.7276   -1.9184 C   0  0  0  0  0  0  0  0  0  0  0  0
    6.2444   -0.6564   -2.3532 N   0  0  0  0  0  0  0  0  0  0  0  0
    5.2104   -0.4608   -1.5561 N   0  0  0  0  0  0  0  0  0  0  0  0
    3.5472   -0.1907    2.2984 N   0  0  0  0  0  0  0  0  0  0  0  0
    2.4269    0.1016    1.4886 C   0  0  0  0  0  0  0  0  0  0  0  0
    2.5498    0.0519    0.1543 N   0  0  0  0  0  0  0  0  0  0  0  0
    1.5455    0.3123   -0.6998 C   0  0  0  0  0  0  0  0  0  0  0  0
    0.3019    0.6543   -0.1884 C   0  0  0  0  0  0  0  0  0  0  0  0
   -0.7679    0.9328   -1.0151 C   0  0  0  0  0  0  0  0  0  0  0  0
   -1.9661    1.2635   -0.4195 C   0  0  0  0  0  0  0  0  0  0  0  0
   -3.1111    1.5636   -1.1414 O   0  0  0  0  0  0  0  0  0  0  0  0
   -4.2188    0.7558   -0.9283 C   0  0  0  0  0  0  0  0  0  0  0  0
   -5.4053    1.2625   -0.4631 C   0  0  0  0  0  0  0  0  0  0  0  0
   -6.5009    0.4567   -0.2536 C   0  0  0  0  0  0  0  0  0  0  0  0
   -6.3838   -0.8979   -0.5249 C   0  0  0  0  0  0  0  0  0  0  0  0
   -7.4832   -1.6574   -0.3061 F   0  0  0  0  0  0  0  0  0  0  0  0
   -5.2046   -1.3950   -0.9861 C   0  0  0  0  0  0  0  0  0  0  0  0
   -4.1150   -0.5946   -1.1947 C   0  0  0  0  0  0  0  0  0  0  0  0
   -2.9675   -1.1607   -1.6578 F   0  0  0  0  0  0  0  0  0  0  0  0
   -2.0655    1.3076    0.9683 C   0  0  0  0  0  0  0  0  0  0  0  0
   -3.1591    1.6094    1.5037 O   0  0  0  0  0  0  0  0  0  0  0  0
   -1.0163    1.0342    1.7550 N   0  0  0  0  0  0  0  0  0  0  0  0
   -1.1864    1.0980    3.1942 C   0  0  0  0  0  0  0  0  0  0  0  0
    0.1587    0.7100    1.1827 C   0  0  0  0  0  0  0  0  0  0  0  0
    1.2253    0.4319    1.9738 N   0  0  0  0  0  0  0  0  0  0  0  0
  1  2  1  0
  2  3  1  0
  2  4  1  0
  4  5  1  0
  5  6  2  0
  5  7  1  0
  7  8  1  0
  8  9  1  0
  9 10  1  0
 10 11  1  0
 13 12  1  6
 13 14  1  0
 14 15  1  0
 15 16  1  0
 16 17  2  0
 17 18  1  0
 18 19  2  0
 13 20  1  0
 20 21  1  0
 21 22  2  0
 22 23  1  0
 23 24  2  0
 24 25  1  0
 25 26  2  0
 26 27  1  0
 27 28  1  0
 28 29  2  0
 29 30  1  0
 30 31  2  0
 31 32  1  0
 31 33  1  0
 33 34  2  0
 34 35  1  0
 26 36  1  0
 36 37  2  0
 36 38  1  0
 38 39  1  0
 38 40  1  0
 40 41  2  0
 11  7  1  0
 19 15  1  0
 41 21  1  0
 40 24  1  0
 34 28  1  0
M  END

