
     RDKit          3D

 14 13  0  0  0  0  0  0  0  0999 V2000
   -5.8770   -1.0986    0.0039 N   0  0  0  0  0  0  0  0  0  0  0  0
   -4.5896   -0.5152   -0.0459 C   0  0  0  0  0  0  0  0  0  0  0  0
   -3.9506   -0.2316    1.0348 N   0  0  0  0  0  4  0  0  0  0  0  0
   -3.9718   -0.2286   -1.2886 N   0  0  0  0  0  0  0  0  0  0  0  0
   -2.6672    0.3624   -1.3006 C   0  0  0  0  0  0  0  0  0  0  0  0
   -1.6522   -0.5482   -0.5926 C   0  0  0  0  0  0  0  0  0  0  0  0
   -0.3364    0.1737   -0.6705 C   0  0  0  0  0  0  0  0  0  0  0  0
    0.7926   -0.5583   -0.0300 C   0  0  0  0  0  0  0  0  0  0  0  0
    2.0169    0.2520   -0.1750 C   0  0  0  0  0  0  0  0  0  0  0  0
    1.9597    1.3467   -0.7609 O   0  0  0  0  0  0  0  0  0  0  0  0
    3.2272   -0.2107    0.3432 N   0  0  0  0  0  0  0  0  0  0  0  0
    4.4874    0.5064    0.2551 C   0  0  0  0  0  0  0  0  0  0  0  0
    5.5138   -0.3831    0.9547 C   0  0  0  0  0  0  0  0  0  0  0  0
    5.0474   -0.5226    2.2725 O   0  0  0  0  0  0  0  0  0  0  0  0
  1  2  1  0
  2  3  2  0
  2  4  1  0
  4  5  1  0
  5  6  1  0
  6  7  1  0
  7  8  1  0
  8  9  1  0
  9 10  2  0
  9 11  1  0
 11 12  1  0
 12 13  1  0
 13 14  1  0
M  CHG  1   3   1
M  END

