
     RDKit          3D

 43 45  0  0  0  0  0  0  0  0999 V2000
    4.5473    0.5553   -0.6099 C   0  0  0  0  0  0  0  0  0  0  0  0
    3.9656   -0.4726    0.3626 C   0  0  0  0  0  0  0  0  0  0  0  0
    2.3971    0.0812    0.4401 C   0  0  2  0  0  0  0  0  0  0  0  0
    2.0127   -1.1372    1.4953 C   0  0  0  0  0  0  0  0  0  0  0  0
    1.9473   -0.7603   -0.8627 C   0  0  0  0  0  0  0  0  0  0  0  0
    0.6022   -0.4444   -1.0799 N   0  0  0  0  0  0  0  0  0  0  0  0
   -0.5598   -0.5949   -0.3472 C   0  0  0  0  0  0  0  0  0  0  0  0
   -0.5079   -1.1202    0.7670 O   0  0  0  0  0  0  0  0  0  0  0  0
   -1.8166   -0.1002   -0.9717 C   0  0  0  0  0  0  0  0  0  0  0  0
   -2.9669   -0.4260    0.1343 C   0  0  1  0  0  0  0  0  0  0  0  0
   -2.2980    0.4858    1.2995 C   0  0  0  0  0  0  0  0  0  0  0  0
   -3.9941    0.7252   -0.3672 C   0  0  0  0  0  0  0  0  0  0  0  0
   -3.3290    2.0559   -0.2601 C   0  0  0  0  0  0  0  0  0  0  0  0
    4.0037   -1.3323   -0.2145 C   0  0  0  0  0  0  0  0  0  0  0  0
    3.5741   -2.0809   -1.6538 C   0  0  2  0  0  0  0  0  0  0  0  0
    5.0157   -1.6316   -2.3906 C   0  0  0  0  0  0  0  0  0  0  0  0
    4.7427   -2.2566   -3.7083 N   0  0  0  0  0  0  0  0  0  0  0  0
    4.1529   -1.6939   -4.7298 N   0  0  0  0  0  0  0  0  0  0  0  0
    4.0934   -2.5683   -5.7216 C   0  0  0  0  0  0  0  0  0  0  0  0
    4.6634   -3.7005   -5.2960 N   0  0  0  0  0  0  0  0  0  0  0  0
    5.0554   -3.4874   -4.0567 N   0  0  0  0  0  0  0  0  0  0  0  0
    2.8184   -0.8209   -2.2404 N   0  0  0  0  0  0  0  0  0  0  0  0
    1.7194   -0.3522   -1.4718 C   0  0  0  0  0  0  0  0  0  0  0  0
    0.9702    0.7016   -1.8209 N   0  0  0  0  0  0  0  0  0  0  0  0
   -0.0770    1.1202   -1.0553 C   0  0  0  0  0  0  0  0  0  0  0  0
   -0.4079    0.4709    0.1156 C   0  0  0  0  0  0  0  0  0  0  0  0
   -1.4589    0.8512    0.9311 C   0  0  0  0  0  0  0  0  0  0  0  0
   -1.7578    0.1741    2.0963 C   0  0  0  0  0  0  0  0  0  0  0  0
   -2.7959    0.5104    2.9485 O   0  0  0  0  0  0  0  0  0  0  0  0
   -3.6484    1.5771    2.7094 C   0  0  0  0  0  0  0  0  0  0  0  0
   -5.0051    1.4207    2.5596 C   0  0  0  0  0  0  0  0  0  0  0  0
   -5.8622    2.4754    2.3215 C   0  0  0  0  0  0  0  0  0  0  0  0
   -5.3251    3.7494    2.2301 C   0  0  0  0  0  0  0  0  0  0  0  0
   -6.1122    4.8291    1.9976 F   0  0  0  0  0  0  0  0  0  0  0  0
   -3.9701    3.9058    2.3796 C   0  0  0  0  0  0  0  0  0  0  0  0
   -3.1069    2.8456    2.6192 C   0  0  0  0  0  0  0  0  0  0  0  0
   -1.7826    2.9961    2.7657 F   0  0  0  0  0  0  0  0  0  0  0  0
   -0.9610   -0.9019    2.4144 C   0  0  0  0  0  0  0  0  0  0  0  0
   -1.2273   -1.5360    3.4891 O   0  0  0  0  0  0  0  0  0  0  0  0
    0.0639   -1.2725    1.6188 N   0  0  0  0  0  0  0  0  0  0  0  0
    0.8856   -2.4095    1.9793 C   0  0  0  0  0  0  0  0  0  0  0  0
    0.3618   -0.6147    0.4777 C   0  0  0  0  0  0  0  0  0  0  0  0
    1.3776   -0.9683   -0.3272 N   0  0  0  0  0  0  0  0  0  0  0  0
  1  2  1  0
  2  3  1  0
  3  4  1  1
  3  5  1  0
  5  6  1  0
  6  7  1  0
  7  8  2  0
  7  9  1  0
  9 10  1  0
 10 11  1  1
 10 12  1  0
 12 13  1  0
 15 14  1  1
 15 16  1  0
 16 17  1  0
 17 18  1  0
 18 19  2  0
 19 20  1  0
 20 21  2  0
 15 22  1  0
 22 23  1  0
 23 24  2  0
 24 25  1  0
 25 26  2  0
 26 27  1  0
 27 28  2  0
 28 29  1  0
 29 30  1  0
 30 31  2  0
 31 32  1  0
 32 33  2  0
 33 34  1  0
 33 35  1  0
 35 36  2  0
 36 37  1  0
 28 38  1  0
 38 39  2  0
 38 40  1  0
 40 41  1  0
 40 42  1  0
 42 43  2  0
 21 17  1  0
 43 23  1  0
 42 26  1  0
 36 30  1  0
M  END

