
     RDKit          3D

  9  8  0  0  0  0  0  0  0  0999 V2000
   -2.8053    0.4952   -1.5030 C   0  0  0  0  0  0  0  0  0  0  0  0
   -1.8992   -0.0106   -0.4188 C   0  0  0  0  0  0  0  0  0  0  0  0
   -2.0651    0.3183    0.7881 O   0  0  0  0  0  0  0  0  0  0  0  0
   -0.8100   -0.8852   -0.7016 N   0  0  0  0  0  0  0  0  0  0  0  0
    0.0802   -1.3884    0.3260 C   0  0  0  0  0  0  0  0  0  0  0  0
    0.8025   -0.2895    1.0605 C   0  0  0  0  0  0  0  0  0  0  0  0
    1.6456    0.5302    0.0921 C   0  0  0  0  0  0  0  0  0  0  0  0
    2.3579    1.6219    0.8474 C   0  0  0  0  0  0  0  0  0  0  0  0
    2.6935   -0.3918   -0.4907 C   0  0  0  0  0  0  0  0  0  0  0  0
  1  2  1  0
  2  3  2  0
  2  4  1  0
  4  5  1  0
  5  6  1  0
  6  7  1  0
  7  8  1  0
  7  9  1  0
M  END

