
     RDKit          3D

 44 46  0  0  0  0  0  0  0  0999 V2000
   -4.6788    0.0990    1.4364 C   0  0  0  0  0  0  0  0  0  0  0  0
   -4.3751    0.3311   -0.0331 C   0  0  0  0  0  0  0  0  0  0  0  0
   -4.1618    1.7782   -0.3525 C   0  0  0  0  0  0  0  0  0  0  0  0
   -3.0812   -0.4147   -0.3658 C   0  0  0  0  0  0  0  0  0  0  0  0
   -2.0078    0.1592    0.5173 C   0  0  0  0  0  0  0  0  0  0  0  0
   -0.7163   -0.5505    0.2190 C   0  0  0  0  0  0  0  0  0  0  0  0
   -0.6585   -1.4580   -0.6454 O   0  0  0  0  0  0  0  0  0  0  0  0
    0.4858   -0.2190    0.9053 N   0  0  0  0  0  0  0  0  0  0  0  0
    1.7275   -0.9117    0.6084 C   0  0  0  0  0  0  0  0  0  0  0  0
    2.1552   -0.7616   -0.8168 C   0  0  0  0  0  0  0  0  0  0  0  0
    2.3744    0.6708   -1.1840 C   0  0  0  0  0  0  0  0  0  0  0  0
    3.4470    1.3313   -0.3372 C   0  0  0  0  0  0  0  0  0  0  0  0
    4.7774    0.6659   -0.4615 C   0  0  0  0  0  0  0  0  0  0  0  0
    4.7123   -0.7201   -0.0458 N   0  0  0  0  0  4  0  0  0  0  0  0
   -3.3873    1.8797    2.4522 C   0  0  0  0  0  0  0  0  0  0  0  0
   -4.6315    1.1905    1.5984 C   0  0  2  0  0  0  0  0  0  0  0  0
   -3.8670   -0.2707    1.4562 C   0  0  0  0  0  0  0  0  0  0  0  0
   -4.8239   -1.0648    0.7061 N   0  0  0  0  0  0  0  0  0  0  0  0
   -4.8772   -1.1575   -0.6009 N   0  0  0  0  0  0  0  0  0  0  0  0
   -5.8718   -1.9679   -0.9898 C   0  0  0  0  0  0  0  0  0  0  0  0
   -6.4566   -2.3920    0.1527 N   0  0  0  0  0  0  0  0  0  0  0  0
   -5.8002   -1.8280    1.1704 N   0  0  0  0  0  0  0  0  0  0  0  0
   -4.1369    1.7493    0.2119 N   0  0  0  0  0  0  0  0  0  0  0  0
   -2.8728    1.4357   -0.2527 C   0  0  0  0  0  0  0  0  0  0  0  0
   -2.5030    1.9305   -1.4257 N   0  0  0  0  0  0  0  0  0  0  0  0
   -1.2809    1.6672   -1.9453 C   0  0  0  0  0  0  0  0  0  0  0  0
   -0.3786    0.8738   -1.2701 C   0  0  0  0  0  0  0  0  0  0  0  0
    0.8922    0.5843   -1.7826 C   0  0  0  0  0  0  0  0  0  0  0  0
    1.7737   -0.2131   -1.0836 C   0  0  0  0  0  0  0  0  0  0  0  0
    3.0445   -0.5499   -1.5128 O   0  0  0  0  0  0  0  0  0  0  0  0
    4.1346   -0.1844   -0.7362 C   0  0  0  0  0  0  0  0  0  0  0  0
    4.0241    0.5057    0.4539 C   0  0  0  0  0  0  0  0  0  0  0  0
    5.1326    0.8453    1.1877 C   0  0  0  0  0  0  0  0  0  0  0  0
    6.4054    0.5143    0.7725 C   0  0  0  0  0  0  0  0  0  0  0  0
    7.5029    0.8581    1.5122 F   0  0  0  0  0  0  0  0  0  0  0  0
    6.5175   -0.1749   -0.4158 C   0  0  0  0  0  0  0  0  0  0  0  0
    5.4256   -0.5214   -1.1596 C   0  0  0  0  0  0  0  0  0  0  0  0
    5.5244   -1.2029   -2.3361 F   0  0  0  0  0  0  0  0  0  0  0  0
    1.3443   -0.7034    0.1294 C   0  0  0  0  0  0  0  0  0  0  0  0
    2.1073   -1.4429    0.8211 O   0  0  0  0  0  0  0  0  0  0  0  0
    0.1108   -0.4181    0.6194 N   0  0  0  0  0  0  0  0  0  0  0  0
   -0.3083   -0.9540    1.9045 C   0  0  0  0  0  0  0  0  0  0  0  0
   -0.7630    0.3597   -0.0513 C   0  0  0  0  0  0  0  0  0  0  0  0
   -1.9810    0.6519    0.4141 N   0  0  0  0  0  0  0  0  0  0  0  0
  1  2  1  0
  2  3  1  0
  2  4  1  0
  4  5  1  0
  5  6  1  0
  6  7  2  0
  6  8  1  0
  8  9  1  0
  9 10  1  0
 10 11  1  0
 11 12  1  0
 12 13  1  0
 13 14  1  0
 16 15  1  1
 16 17  1  0
 17 18  1  0
 18 19  1  0
 19 20  2  0
 20 21  1  0
 21 22  2  0
 16 23  1  0
 23 24  1  0
 24 25  2  0
 25 26  1  0
 26 27  2  0
 27 28  1  0
 28 29  2  0
 29 30  1  0
 30 31  1  0
 31 32  2  0
 32 33  1  0
 33 34  2  0
 34 35  1  0
 34 36  1  0
 36 37  2  0
 37 38  1  0
 29 39  1  0
 39 40  2  0
 39 41  1  0
 41 42  1  0
 41 43  1  0
 43 44  2  0
 22 18  1  0
 44 24  1  0
 43 27  1  0
 37 31  1  0
M  CHG  1  14   1
M  END

