
     RDKit          3D

 13 12  0  0  0  0  0  0  0  0999 V2000
   -5.1025    0.6365    0.2514 C   0  0  0  0  0  0  0  0  0  0  0  0
   -3.7929    0.1252   -0.2498 C   0  0  0  0  0  0  0  0  0  0  0  0
   -3.5598   -1.3287   -0.0172 C   0  0  0  0  0  0  0  0  0  0  0  0
   -2.6359    1.0042    0.1064 C   0  0  0  0  0  0  0  0  0  0  0  0
   -1.3762    0.4428   -0.4176 C   0  0  0  0  0  0  0  0  0  0  0  0
   -1.4097   -0.6297   -1.0567 O   0  0  0  0  0  0  0  0  0  0  0  0
   -0.1227    1.0694   -0.2273 N   0  0  0  0  0  0  0  0  0  0  0  0
    1.1295    0.5390   -0.7315 C   0  0  0  0  0  0  0  0  0  0  0  0
    1.4183   -0.8474   -0.1581 C   0  0  0  0  0  0  0  0  0  0  0  0
    2.7509   -1.2755   -0.7690 C   0  0  0  0  0  0  0  0  0  0  0  0
    3.8019   -0.2774   -0.3707 C   0  0  0  0  0  0  0  0  0  0  0  0
    3.9391   -0.2153    1.1494 C   0  0  0  0  0  0  0  0  0  0  0  0
    4.9600    0.7568    1.4828 N   0  0  0  0  0  4  0  0  0  0  0  0
  1  2  1  0
  2  3  1  0
  2  4  1  0
  4  5  1  0
  5  6  2  0
  5  7  1  0
  7  8  1  0
  8  9  1  0
  9 10  1  0
 10 11  1  0
 11 12  1  0
 12 13  1  0
M  CHG  1  13   1
M  END

