
     RDKit          3D

 43 45  0  0  0  0  0  0  0  0999 V2000
    4.6592   -0.9843   -0.8043 C   0  0  0  0  0  0  0  0  0  0  0  0
    3.4783   -1.2716    0.1013 C   0  0  0  0  0  0  0  0  0  0  0  0
    2.3147   -0.1928   -0.3896 C   0  0  2  0  0  0  0  0  0  0  0  0
    3.2945    1.1048   -0.0297 C   0  0  0  0  0  0  0  0  0  0  0  0
    1.6056   -0.1675    1.1114 C   0  0  0  0  0  0  0  0  0  0  0  0
    0.5088    0.7234    1.0075 N   0  0  0  0  0  0  0  0  0  0  0  0
   -0.5832    0.5376    0.1032 C   0  0  0  0  0  0  0  0  0  0  0  0
   -0.5014   -0.4994   -0.6135 O   0  0  0  0  0  0  0  0  0  0  0  0
   -1.6757    1.5132    0.0655 C   0  0  0  0  0  0  0  0  0  0  0  0
   -2.7212    1.1048   -0.9474 C   0  0  0  0  0  0  0  0  0  0  0  0
   -3.2580   -0.2146   -0.5471 C   0  0  0  0  0  0  0  0  0  0  0  0
   -4.2528   -0.8712   -1.3496 N   0  0  0  0  0  0  0  0  0  0  0  0
   -2.8689   -0.7824    0.4794 O   0  0  0  0  0  0  0  0  0  0  0  0
    4.5529    0.0839    0.5144 C   0  0  0  0  0  0  0  0  0  0  0  0
    4.4315   -1.5713    0.5772 C   0  0  2  0  0  0  0  0  0  0  0  0
    5.7083   -1.7776   -0.4722 C   0  0  0  0  0  0  0  0  0  0  0  0
    6.7975   -1.1323    0.2397 N   0  0  0  0  0  0  0  0  0  0  0  0
    7.0997    0.1370    0.1137 N   0  0  0  0  0  0  0  0  0  0  0  0
    8.1436    0.3802    0.9072 C   0  0  0  0  0  0  0  0  0  0  0  0
    8.4609   -0.7625    1.5095 N   0  0  0  0  0  0  0  0  0  0  0  0
    7.6266   -1.6990    1.0953 N   0  0  0  0  0  0  0  0  0  0  0  0
    3.3590   -1.6202   -0.5901 N   0  0  0  0  0  0  0  0  0  0  0  0
    2.1861   -0.8880   -0.2546 C   0  0  0  0  0  0  0  0  0  0  0  0
    2.0067   -0.2349    0.9071 N   0  0  0  0  0  0  0  0  0  0  0  0
    0.9062    0.4476    1.2126 C   0  0  0  0  0  0  0  0  0  0  0  0
   -0.1182    0.4999    0.3008 C   0  0  0  0  0  0  0  0  0  0  0  0
   -1.2798    1.2001    0.5818 C   0  0  0  0  0  0  0  0  0  0  0  0
   -2.2718    1.2147   -0.3749 C   0  0  0  0  0  0  0  0  0  0  0  0
   -3.4429    1.9013   -0.1313 O   0  0  0  0  0  0  0  0  0  0  0  0
   -4.6949    1.3563   -0.1031 C   0  0  0  0  0  0  0  0  0  0  0  0
   -5.6392    1.8251   -0.9949 C   0  0  0  0  0  0  0  0  0  0  0  0
   -6.9314    1.3130   -1.0180 C   0  0  0  0  0  0  0  0  0  0  0  0
   -7.2680    0.3113   -0.1231 C   0  0  0  0  0  0  0  0  0  0  0  0
   -8.5177   -0.1816   -0.1479 F   0  0  0  0  0  0  0  0  0  0  0  0
   -6.3435   -0.1861    0.7898 C   0  0  0  0  0  0  0  0  0  0  0  0
   -5.0598    0.3595    0.7745 C   0  0  0  0  0  0  0  0  0  0  0  0
   -4.1500   -0.1210    1.6635 F   0  0  0  0  0  0  0  0  0  0  0  0
   -2.0638    0.5409   -1.5507 C   0  0  0  0  0  0  0  0  0  0  0  0
   -2.9995    0.5806   -2.4002 O   0  0  0  0  0  0  0  0  0  0  0  0
   -0.9483   -0.1400   -1.8381 N   0  0  0  0  0  0  0  0  0  0  0  0
   -0.7551   -0.8479   -3.0984 C   0  0  0  0  0  0  0  0  0  0  0  0
    0.0321   -0.1576   -0.8989 C   0  0  0  0  0  0  0  0  0  0  0  0
    1.1727   -0.8314   -1.1467 N   0  0  0  0  0  0  0  0  0  0  0  0
  1  2  1  0
  2  3  1  0
  3  4  1  1
  3  5  1  0
  5  6  1  0
  6  7  1  0
  7  8  2  0
  7  9  1  0
  9 10  1  0
 10 11  1  0
 11 12  1  0
 11 13  2  0
 15 14  1  6
 15 16  1  0
 16 17  1  0
 17 18  1  0
 18 19  2  0
 19 20  1  0
 20 21  2  0
 15 22  1  0
 22 23  1  0
 23 24  2  0
 24 25  1  0
 25 26  2  0
 26 27  1  0
 27 28  2  0
 28 29  1  0
 29 30  1  0
 30 31  2  0
 31 32  1  0
 32 33  2  0
 33 34  1  0
 33 35  1  0
 35 36  2  0
 36 37  1  0
 28 38  1  0
 38 39  2  0
 38 40  1  0
 40 41  1  0
 40 42  1  0
 42 43  2  0
 21 17  1  0
 43 23  1  0
 42 26  1  0
 36 30  1  0
M  END

