
     RDKit          3D

 17 18  0  0  0  0  0  0  0  0999 V2000
    2.7623   -0.9052   -0.6579 O   0  0  0  0  0  0  0  0  0  0  0  0
    2.3212   -0.4834    0.4342 C   0  0  0  0  0  0  0  0  0  0  0  0
    0.8634   -0.4703    0.6643 C   0  0  0  0  0  0  0  0  0  0  0  0
    0.1838   -1.0564   -0.5478 C   0  0  0  0  0  0  0  0  0  0  0  0
   -1.2958   -1.0340   -0.3004 C   0  0  0  0  0  0  0  0  0  0  0  0
   -2.1268   -2.0714    0.0632 C   0  0  0  0  0  0  0  0  0  0  0  0
   -3.3695   -1.6005    0.1810 N   0  0  0  0  0  0  0  0  0  0  0  0
   -3.4203   -0.2767   -0.0892 C   0  0  0  0  0  0  0  0  0  0  0  0
   -4.4093    0.6833   -0.1220 C   0  0  0  0  0  0  0  0  0  0  0  0
   -4.1128    1.9989   -0.4540 C   0  0  0  0  0  0  0  0  0  0  0  0
   -2.8133    2.3517   -0.7552 C   0  0  0  0  0  0  0  0  0  0  0  0
   -1.8231    1.3936   -0.7231 C   0  0  0  0  0  0  0  0  0  0  0  0
   -2.1277    0.0793   -0.3898 C   0  0  0  0  0  0  0  0  0  0  0  0
    3.2433   -0.0311    1.4161 N   0  0  0  0  0  0  0  0  0  0  0  0
    4.6624   -0.0583    1.1542 C   0  0  0  0  0  0  0  0  0  0  0  0
    5.0359    0.7831   -0.0303 C   0  0  0  0  0  0  0  0  0  0  0  0
    6.4264    0.6974   -0.2071 O   0  0  0  0  0  0  0  0  0  0  0  0
  1  2  2  0
  2  3  1  0
  3  4  1  0
  4  5  1  0
  5  6  2  0
  6  7  1  0
  7  8  1  0
  8  9  2  0
  9 10  1  0
 10 11  2  0
 11 12  1  0
 12 13  2  0
  2 14  1  0
 14 15  1  0
 15 16  1  0
 16 17  1  0
 13  5  1  0
 13  8  1  0
M  END

