
     RDKit          3D

 10  9  0  0  0  0  0  0  0  0999 V2000
    3.8925    0.6143   -0.8278 C   0  0  0  0  0  0  0  0  0  0  0  0
    2.5668    0.9377   -0.2111 C   0  0  0  0  0  0  0  0  0  0  0  0
    1.6366   -0.2147   -0.2650 C   0  0  0  0  0  0  0  0  0  0  0  0
    1.9714   -1.3153   -0.7801 O   0  0  0  0  0  0  0  0  0  0  0  0
    0.3340   -0.0941    0.2714 N   0  0  0  0  0  0  0  0  0  0  0  0
   -0.6024   -1.2256    0.2274 C   0  0  0  0  0  0  0  0  0  0  0  0
   -1.8993   -0.7913    0.8723 C   0  0  0  0  0  0  0  0  0  0  0  0
   -2.4368    0.3530    0.1193 C   0  0  0  0  0  0  0  0  0  0  0  0
   -3.6226    0.9278    0.5209 O   0  0  0  0  0  1  0  0  0  0  0  0
   -1.8402    0.8082   -0.8704 O   0  0  0  0  0  0  0  0  0  0  0  0
  1  2  1  0
  2  3  1  0
  3  4  2  0
  3  5  1  0
  5  6  1  0
  6  7  1  0
  7  8  1  0
  8  9  1  0
  8 10  2  0
M  RAD  1   9   2
M  END

