
     RDKit          3D

 14 14  0  0  0  0  0  0  0  0999 V2000
    5.3892    0.8234   -0.1828 O   0  0  0  0  0  1  0  0  0  0  0  0
    4.1184    0.2793   -0.1263 C   0  0  0  0  0  0  0  0  0  0  0  0
    3.6586   -0.3741   -1.1092 O   0  0  0  0  0  0  0  0  0  0  0  0
    3.2962    0.4723    1.1081 C   0  0  0  0  0  0  0  0  0  0  0  0
    1.9552   -0.2208    0.9059 C   0  0  0  0  0  0  0  0  0  0  0  0
    1.3003    0.4105   -0.2768 C   0  0  0  0  0  0  0  0  0  0  0  0
    0.0219   -0.1551   -0.5762 N   0  0  0  0  0  0  0  0  0  0  0  0
   -1.0792   -0.1533    0.3307 C   0  0  0  0  0  0  0  0  0  0  0  0
   -0.9742    0.3387    1.4169 O   0  0  0  0  0  0  0  0  0  0  0  0
   -2.4081   -0.8448   -0.2275 C   0  0  2  0  0  0  0  0  0  0  0  0
   -2.9629    0.5662   -0.9096 C   0  0  0  0  0  0  0  0  0  0  0  0
   -4.4108    0.1661   -0.9139 C   0  0  0  0  0  0  0  0  0  0  0  0
   -4.5911   -0.6830    0.3126 C   0  0  0  0  0  0  0  0  0  0  0  0
   -3.3136   -0.6254    1.0380 N   0  0  0  0  0  0  0  0  0  0  0  0
  1  2  1  0
  2  3  2  0
  2  4  1  0
  4  5  1  0
  5  6  1  0
  6  7  1  0
  7  8  1  0
  8  9  2  0
 10  8  1  1
 10 11  1  0
 11 12  1  0
 12 13  1  0
 13 14  1  0
 14 10  1  0
M  RAD  1   1   2
M  END

