
     RDKit          3D

 16 15  0  0  0  0  0  0  0  0999 V2000
   -6.4947    1.0459    0.3095 C   0  0  0  0  0  0  0  0  0  0  0  0
   -5.0625    0.8150    0.6399 C   0  0  0  0  0  0  0  0  0  0  0  0
   -4.0965    1.6714   -0.1044 C   0  0  0  0  0  0  0  0  0  0  0  0
   -4.6709   -0.6401    0.6906 C   0  0  0  0  0  0  0  0  0  0  0  0
   -3.1965   -0.6947    1.0359 C   0  0  0  0  0  0  0  0  0  0  0  0
   -2.3937   -0.0082    0.0447 N   0  0  0  0  0  0  0  0  0  0  0  0
   -0.9874    0.0331    0.2203 C   0  0  0  0  0  0  0  0  0  0  0  0
   -0.5157   -0.5335    1.2348 O   0  0  0  0  0  0  0  0  0  0  0  0
   -0.1181    0.7222   -0.7637 C   0  0  0  0  0  0  0  0  0  0  0  0
    1.3109    0.5998   -0.3144 C   0  0  0  0  0  0  0  0  0  0  0  0
    1.6656   -0.8581   -0.2377 C   0  0  0  0  0  0  0  0  0  0  0  0
    3.1101   -0.9721    0.2166 C   0  0  0  0  0  0  0  0  0  0  0  0
    3.9852   -0.3160   -0.7068 N   0  0  0  0  0  0  0  0  0  0  0  0
    5.3792   -0.3071   -0.4647 C   0  0  0  0  0  0  0  0  0  0  0  0
    6.2654    0.3367   -1.3657 N   0  0  0  0  0  0  0  0  0  0  0  0
    5.8192   -0.8943    0.5868 N   0  0  0  0  0  4  0  0  0  0  0  0
  1  2  1  0
  2  3  1  0
  2  4  1  0
  4  5  1  0
  5  6  1  0
  6  7  1  0
  7  8  2  0
  7  9  1  0
  9 10  1  0
 10 11  1  0
 11 12  1  0
 12 13  1  0
 13 14  1  0
 14 15  1  0
 14 16  2  0
M  CHG  1  16   1
M  END

