
     RDKit          3D

 43 45  0  0  0  0  0  0  0  0999 V2000
    6.4065   -0.2269   -0.5508 C   0  0  0  0  0  0  0  0  0  0  0  0
    4.7008    0.3279   -0.2786 S   0  0  0  0  0  0  0  0  0  0  0  0
    3.8785   -0.8447    0.8410 C   0  0  0  0  0  0  0  0  0  0  0  0
    2.4634   -0.4614    1.1195 C   0  0  0  0  0  0  0  0  0  0  0  0
    1.6195   -0.4055   -0.1379 C   0  0  0  0  0  0  0  0  0  0  0  0
    0.2186   -0.0216    0.1743 C   0  0  0  0  0  0  0  0  0  0  0  0
   -0.0924    0.2005    1.3728 O   0  0  0  0  0  0  0  0  0  0  0  0
   -0.7874    0.1076   -0.8103 N   0  0  0  0  0  0  0  0  0  0  0  0
   -2.1512    0.4838   -0.4861 C   0  0  0  0  0  0  0  0  0  0  0  0
   -2.8057   -0.4831    0.4511 C   0  0  0  0  0  0  0  0  0  0  0  0
   -4.2001   -0.0320    0.7372 C   0  0  0  0  0  0  0  0  0  0  0  0
   -4.9741    0.0241   -0.5646 C   0  0  0  0  0  0  0  0  0  0  0  0
   -4.2763    1.3314    1.3738 C   0  0  0  0  0  0  0  0  0  0  0  0
    4.4903   -1.1711    0.0974 C   0  0  0  0  0  0  0  0  0  0  0  0
    4.4808   -0.8215   -1.5398 C   0  0  2  0  0  0  0  0  0  0  0  0
    5.8189    0.1879   -1.4744 C   0  0  0  0  0  0  0  0  0  0  0  0
    6.9019   -0.5749   -0.9949 N   0  0  0  0  0  0  0  0  0  0  0  0
    7.7773   -1.2778   -1.6488 N   0  0  0  0  0  0  0  0  0  0  0  0
    8.6195   -1.8292   -0.7718 C   0  0  0  0  0  0  0  0  0  0  0  0
    8.2483   -1.4522    0.4592 N   0  0  0  0  0  0  0  0  0  0  0  0
    7.1952   -0.6840    0.3119 N   0  0  0  0  0  0  0  0  0  0  0  0
    3.4814    0.3799   -1.3547 N   0  0  0  0  0  0  0  0  0  0  0  0
    2.2591   -0.0039   -0.8011 C   0  0  0  0  0  0  0  0  0  0  0  0
    2.0246   -1.2831   -0.4821 N   0  0  0  0  0  0  0  0  0  0  0  0
    0.8589   -1.6312    0.0427 C   0  0  0  0  0  0  0  0  0  0  0  0
   -0.1156   -0.6997    0.2656 C   0  0  0  0  0  0  0  0  0  0  0  0
   -1.3583   -1.0297    0.8178 C   0  0  0  0  0  0  0  0  0  0  0  0
   -2.3188   -0.0751    1.0311 C   0  0  0  0  0  0  0  0  0  0  0  0
   -3.5293   -0.4095    1.5713 O   0  0  0  0  0  0  0  0  0  0  0  0
   -4.7396   -0.2099    0.9324 C   0  0  0  0  0  0  0  0  0  0  0  0
   -4.8136    0.3513   -0.3193 C   0  0  0  0  0  0  0  0  0  0  0  0
   -6.0071    0.5623   -0.9807 C   0  0  0  0  0  0  0  0  0  0  0  0
   -7.1612    0.1826   -0.3310 C   0  0  0  0  0  0  0  0  0  0  0  0
   -8.3309    0.3903   -0.9812 F   0  0  0  0  0  0  0  0  0  0  0  0
   -7.1076   -0.3840    0.9292 C   0  0  0  0  0  0  0  0  0  0  0  0
   -5.8957   -0.5832    1.5675 C   0  0  0  0  0  0  0  0  0  0  0  0
   -5.8781   -1.1372    2.7940 F   0  0  0  0  0  0  0  0  0  0  0  0
   -2.0567    1.2248    0.6974 C   0  0  0  0  0  0  0  0  0  0  0  0
   -2.8778    2.1729    0.8564 O   0  0  0  0  0  0  0  0  0  0  0  0
   -0.8496    1.5531    0.1596 N   0  0  0  0  0  0  0  0  0  0  0  0
   -0.5328    2.9177   -0.2073 C   0  0  0  0  0  0  0  0  0  0  0  0
    0.1178    0.6109   -0.0586 C   0  0  0  0  0  0  0  0  0  0  0  0
    1.2986    0.9483   -0.5875 N   0  0  0  0  0  0  0  0  0  0  0  0
  1  2  1  0
  2  3  1  0
  3  4  1  0
  4  5  1  0
  5  6  1  0
  6  7  2  0
  6  8  1  0
  8  9  1  0
  9 10  1  0
 10 11  1  0
 11 12  1  0
 11 13  1  0
 15 14  1  1
 15 16  1  0
 16 17  1  0
 17 18  1  0
 18 19  2  0
 19 20  1  0
 20 21  2  0
 15 22  1  0
 22 23  1  0
 23 24  2  0
 24 25  1  0
 25 26  2  0
 26 27  1  0
 27 28  2  0
 28 29  1  0
 29 30  1  0
 30 31  2  0
 31 32  1  0
 32 33  2  0
 33 34  1  0
 33 35  1  0
 35 36  2  0
 36 37  1  0
 28 38  1  0
 38 39  2  0
 38 40  1  0
 40 41  1  0
 40 42  1  0
 42 43  2  0
 21 17  1  0
 43 23  1  0
 42 26  1  0
 36 30  1  0
M  END

