
     RDKit          3D

 13 12  0  0  0  0  0  0  0  0999 V2000
   -3.7343    2.2054   -0.3373 C   0  0  0  0  0  0  0  0  0  0  0  0
   -2.4503    1.4435   -1.1122 C   0  0  1  0  0  0  0  0  0  0  0  0
   -1.4928    1.7269    0.0196 O   0  0  0  0  0  0  0  0  0  0  0  0
   -2.8992   -0.0404   -0.6118 C   0  0  0  0  0  0  0  0  0  0  0  0
   -1.8332   -0.9110   -0.5919 N   0  0  0  0  0  0  0  0  0  0  0  0
   -0.6387   -1.0152    0.0929 C   0  0  0  0  0  0  0  0  0  0  0  0
   -0.3345   -0.1701    0.9480 O   0  0  0  0  0  0  0  0  0  0  0  0
    0.3017   -2.1729   -0.2080 C   0  0  0  0  0  0  0  0  0  0  0  0
    1.5245   -2.0860    0.6439 C   0  0  0  0  0  0  0  0  0  0  0  0
    2.3185   -0.8412    0.4572 C   0  0  0  0  0  0  0  0  0  0  0  0
    2.8335   -0.6241   -0.9245 C   0  0  0  0  0  0  0  0  0  0  0  0
    3.6129    0.6792   -0.9338 C   0  0  0  0  0  0  0  0  0  0  0  0
    2.7920    1.8060   -0.5565 N   0  0  0  0  0  4  0  0  0  0  0  0
  2  1  1  1
  2  3  1  0
  2  4  1  0
  4  5  1  0
  5  6  1  0
  6  7  2  0
  6  8  1  0
  8  9  1  0
  9 10  1  0
 10 11  1  0
 11 12  1  0
 12 13  1  0
M  CHG  1  13   1
M  END

