
     RDKit          3D

 16 16  0  0  0  0  0  0  0  0999 V2000
    6.1175    0.1885    0.1451 C   0  0  0  0  0  0  0  0  0  0  0  0
    4.6227   -0.2216   -0.4661 C   0  0  1  0  0  0  0  0  0  0  0  0
    4.7742   -1.6834    0.0103 O   0  0  0  0  0  0  0  0  0  0  0  0
    3.8420    0.2163    0.9268 C   0  0  0  0  0  0  0  0  0  0  0  0
    2.4220   -0.0756    0.6027 C   0  0  0  0  0  0  0  0  0  0  0  0
    2.0052   -0.5330   -0.4692 O   0  0  0  0  0  0  0  0  0  0  0  0
    1.4721    0.1995    1.6215 N   0  0  0  0  0  0  0  0  0  0  0  0
    0.0618   -0.0426    1.4252 C   0  0  0  0  0  0  0  0  0  0  0  0
   -0.4112    0.7963    0.2542 C   0  0  0  0  0  0  0  0  0  0  0  0
   -1.8601    0.5224    0.0825 C   0  0  0  0  0  0  0  0  0  0  0  0
   -2.8060    1.2751    0.7364 C   0  0  0  0  0  0  0  0  0  0  0  0
   -4.1423    1.0101    0.5678 C   0  0  0  0  0  0  0  0  0  0  0  0
   -4.4886   -0.0292   -0.2739 C   0  0  0  0  0  0  0  0  0  0  0  0
   -5.8313   -0.3300   -0.4717 O   0  0  0  0  0  0  0  0  0  0  0  0
   -3.5501   -0.7913   -0.9352 C   0  0  0  0  0  0  0  0  0  0  0  0
   -2.2280   -0.5015   -0.7458 C   0  0  0  0  0  0  0  0  0  0  0  0
  2  1  1  1
  2  3  1  0
  2  4  1  0
  4  5  1  0
  5  6  2  0
  5  7  1  0
  7  8  1  0
  8  9  1  0
  9 10  1  0
 10 11  2  0
 11 12  1  0
 12 13  2  0
 13 14  1  0
 13 15  1  0
 15 16  2  0
 16 10  1  0
M  END

