
     RDKit          3D

 44 47  0  0  0  0  0  0  0  0999 V2000
    3.8714   -0.4357    0.5848 C   0  0  0  0  0  0  0  0  0  0  0  0
    4.3243    0.1095   -0.9161 C   0  0  2  0  0  0  0  0  0  0  0  0
    5.6774    0.8655   -0.3241 C   0  0  0  0  0  0  0  0  0  0  0  0
    6.4350   -0.2250    0.2727 N   0  0  0  0  0  0  0  0  0  0  0  0
    6.3292   -0.6309    1.5222 N   0  0  0  0  0  0  0  0  0  0  0  0
    7.1735   -1.6465    1.7104 C   0  0  0  0  0  0  0  0  0  0  0  0
    7.7974   -1.8537    0.5525 N   0  0  0  0  0  0  0  0  0  0  0  0
    7.3449   -0.9907   -0.3095 N   0  0  0  0  0  0  0  0  0  0  0  0
    3.4405    1.4191   -0.8006 N   0  0  0  0  0  0  0  0  0  0  0  0
    2.0473    1.1680   -0.6278 C   0  0  0  0  0  0  0  0  0  0  0  0
    1.2280    2.2366   -0.5213 N   0  0  0  0  0  0  0  0  0  0  0  0
   -0.0855    2.0055   -0.3583 C   0  0  0  0  0  0  0  0  0  0  0  0
   -0.6085    0.7340   -0.2980 C   0  0  0  0  0  0  0  0  0  0  0  0
   -1.9543    0.4706   -0.1311 C   0  0  0  0  0  0  0  0  0  0  0  0
   -2.4287   -0.8236   -0.0770 C   0  0  0  0  0  0  0  0  0  0  0  0
   -3.7870   -1.1196    0.0913 O   0  0  0  0  0  0  0  0  0  0  0  0
   -4.7423   -0.1245    0.2145 C   0  0  0  0  0  0  0  0  0  0  0  0
   -5.7450   -0.1226   -0.7600 C   0  0  0  0  0  0  0  0  0  0  0  0
   -6.7344    0.8371   -0.7075 C   0  0  0  0  0  0  0  0  0  0  0  0
   -6.7032    1.7708    0.3114 C   0  0  0  0  0  0  0  0  0  0  0  0
   -7.6832    2.7076    0.3487 F   0  0  0  0  0  0  0  0  0  0  0  0
   -5.7031    1.7520    1.2653 C   0  0  0  0  0  0  0  0  0  0  0  0
   -4.7122    0.8075    1.2305 C   0  0  0  0  0  0  0  0  0  0  0  0
   -3.7103    0.7538    2.1493 F   0  0  0  0  0  0  0  0  0  0  0  0
   -1.5336   -1.8664   -0.1928 C   0  0  0  0  0  0  0  0  0  0  0  0
   -1.8745   -3.0787   -0.1551 O   0  0  0  0  0  0  0  0  0  0  0  0
   -0.2204   -1.6027   -0.3557 N   0  0  0  0  0  0  0  0  0  0  0  0
    0.7444   -2.7042   -0.4804 C   0  0  0  0  0  0  0  0  0  0  0  0
    0.2560   -0.3338   -0.4101 C   0  0  0  0  0  0  0  0  0  0  0  0
    1.5568   -0.0790   -0.5715 N   0  0  0  0  0  0  0  0  0  0  0  0
    4.4177    3.0111    0.4454 N   0  0  0  0  0  4  0  0  0  0  0  0
    3.7021    1.7789    0.2518 C   0  0  0  0  0  0  0  0  0  0  0  0
    3.6374    1.5019   -1.2595 C   0  0  0  0  0  0  0  0  0  0  0  0
    2.9087    0.2211   -1.5503 C   0  0  0  0  0  0  0  0  0  0  0  0
    1.4816    0.2649   -1.0391 C   0  0  0  0  0  0  0  0  0  0  0  0
    0.8631   -1.0684   -1.3810 C   0  0  0  0  0  0  0  0  0  0  0  0
   -0.4772   -1.2336   -1.0039 N   0  0  0  0  0  0  0  0  0  0  0  0
   -0.9927   -1.1712    0.2399 C   0  0  0  0  0  0  0  0  0  0  0  0
   -0.2884   -0.9454    1.2427 O   0  0  0  0  0  0  0  0  0  0  0  0
   -2.5198   -1.3666    0.5645 C   0  0  2  0  0  0  0  0  0  0  0  0
   -3.1154   -0.2262   -0.4505 C   0  0  0  0  0  0  0  0  0  0  0  0
   -3.2757    0.9528    0.4119 C   0  0  0  0  0  0  0  0  0  0  0  0
   -3.7906    0.2244    1.6731 C   0  0  0  0  0  0  0  0  0  0  0  0
   -2.5507   -0.4937    1.8550 N   0  0  0  0  0  0  0  0  0  0  0  0
  2  1  1  1
  2  3  1  0
  3  4  1  0
  4  5  1  0
  5  6  2  0
  6  7  1  0
  7  8  2  0
  2  9  1  0
  9 10  1  0
 10 11  2  0
 11 12  1  0
 12 13  2  0
 13 14  1  0
 14 15  2  0
 15 16  1  0
 16 17  1  0
 17 18  2  0
 18 19  1  0
 19 20  2  0
 20 21  1  0
 20 22  1  0
 22 23  2  0
 23 24  1  0
 15 25  1  0
 25 26  2  0
 25 27  1  0
 27 28  1  0
 27 29  1  0
 29 30  2  0
 31 32  1  0
 32 33  1  0
 33 34  1  0
 34 35  1  0
 35 36  1  0
 36 37  1  0
 37 38  1  0
 38 39  2  0
 40 38  1  6
 40 41  1  0
 41 42  1  0
 42 43  1  0
 43 44  1  0
  8  4  1  0
 30 10  1  0
 44 40  1  0
 29 13  1  0
 23 17  1  0
M  CHG  1  31   1
M  END

