
     RDKit          3D

 45 47  0  0  0  0  0  0  0  0999 V2000
    5.4295   -1.1751    0.5284 C   0  0  0  0  0  0  0  0  0  0  0  0
    4.5182    0.1118    0.0091 C   0  0  1  0  0  0  0  0  0  0  0  0
    3.6711   -0.7215   -0.8779 O   0  0  0  0  0  0  0  0  0  0  0  0
    3.5573    0.1027    1.2866 C   0  0  0  0  0  0  0  0  0  0  0  0
    2.3309    0.6829    1.0719 N   0  0  0  0  0  0  0  0  0  0  0  0
    1.2591    0.3775    0.2519 C   0  0  0  0  0  0  0  0  0  0  0  0
    1.3028   -0.6251   -0.4862 O   0  0  0  0  0  0  0  0  0  0  0  0
    0.0029    1.2462    0.2233 C   0  0  0  0  0  0  0  0  0  0  0  0
   -0.9345    0.6368   -0.7540 C   0  0  0  0  0  0  0  0  0  0  0  0
   -2.1926    1.4580   -0.8197 C   0  0  0  0  0  0  0  0  0  0  0  0
   -3.1106    0.7899   -1.8311 C   0  0  0  0  0  0  0  0  0  0  0  0
   -3.3527   -0.5610   -1.3155 N   0  0  0  0  0  0  0  0  0  0  0  0
   -3.9628   -0.7090   -0.0435 C   0  0  0  0  0  0  0  0  0  0  0  0
   -4.2393   -1.9836    0.5431 N   0  0  0  0  0  0  0  0  0  0  0  0
   -4.2795    0.3695    0.6074 N   0  0  0  0  0  4  0  0  0  0  0  0
    4.2802    0.5708   -2.7654 C   0  0  0  0  0  0  0  0  0  0  0  0
    4.7300    1.2070   -1.3267 C   0  0  2  0  0  0  0  0  0  0  0  0
    6.0929    0.2935   -1.2351 C   0  0  0  0  0  0  0  0  0  0  0  0
    6.6677    0.7346    0.0448 N   0  0  0  0  0  0  0  0  0  0  0  0
    7.5191    1.7267    0.2459 N   0  0  0  0  0  0  0  0  0  0  0  0
    7.7531    1.7487    1.5559 C   0  0  0  0  0  0  0  0  0  0  0  0
    7.0404    0.7680    2.1390 N   0  0  0  0  0  0  0  0  0  0  0  0
    6.3765    0.1523    1.1918 N   0  0  0  0  0  0  0  0  0  0  0  0
    3.8747    0.1915   -0.5021 N   0  0  0  0  0  0  0  0  0  0  0  0
    2.4995    0.1858   -0.7294 C   0  0  0  0  0  0  0  0  0  0  0  0
    1.9500    1.0153   -1.6142 N   0  0  0  0  0  0  0  0  0  0  0  0
    0.6448    1.0631   -1.8806 C   0  0  0  0  0  0  0  0  0  0  0  0
   -0.1990    0.1977   -1.1973 C   0  0  0  0  0  0  0  0  0  0  0  0
   -1.5415    0.1898   -1.4162 C   0  0  0  0  0  0  0  0  0  0  0  0
   -2.3584   -0.7282   -0.6779 C   0  0  0  0  0  0  0  0  0  0  0  0
   -3.6402   -0.6462   -0.9760 O   0  0  0  0  0  0  0  0  0  0  0  0
   -4.7787   -0.3006   -0.3748 C   0  0  0  0  0  0  0  0  0  0  0  0
   -5.4059    0.8899   -0.8787 C   0  0  0  0  0  0  0  0  0  0  0  0
   -6.5616    1.3770   -0.3867 C   0  0  0  0  0  0  0  0  0  0  0  0
   -7.2032    0.7259    0.6533 C   0  0  0  0  0  0  0  0  0  0  0  0
   -8.3615    1.1834    1.1731 F   0  0  0  0  0  0  0  0  0  0  0  0
   -6.6431   -0.3998    1.1540 C   0  0  0  0  0  0  0  0  0  0  0  0
   -5.4329   -0.9126    0.6400 C   0  0  0  0  0  0  0  0  0  0  0  0
   -5.0126   -2.0765    1.2113 F   0  0  0  0  0  0  0  0  0  0  0  0
   -1.7608   -1.5583    0.2136 C   0  0  0  0  0  0  0  0  0  0  0  0
   -2.3738   -2.4028    0.9091 O   0  0  0  0  0  0  0  0  0  0  0  0
   -0.4199   -1.4998    0.3849 N   0  0  0  0  0  0  0  0  0  0  0  0
    0.2017   -2.3924    1.3416 C   0  0  0  0  0  0  0  0  0  0  0  0
    0.3568   -0.6566   -0.2879 C   0  0  0  0  0  0  0  0  0  0  0  0
    1.7059   -0.6471   -0.0686 N   0  0  0  0  0  0  0  0  0  0  0  0
  2  1  1  1
  2  3  1  0
  2  4  1  0
  4  5  1  0
  5  6  1  0
  6  7  2  0
  6  8  1  0
  8  9  1  0
  9 10  1  0
 10 11  1  0
 11 12  1  0
 12 13  1  0
 13 14  1  0
 13 15  2  0
 17 16  1  6
 17 18  1  0
 18 19  1  0
 19 20  1  0
 20 21  2  0
 21 22  1  0
 22 23  2  0
 17 24  1  0
 24 25  1  0
 25 26  2  0
 26 27  1  0
 27 28  2  0
 28 29  1  0
 29 30  2  0
 30 31  1  0
 31 32  1  0
 32 33  2  0
 33 34  1  0
 34 35  2  0
 35 36  1  0
 35 37  1  0
 37 38  2  0
 38 39  1  0
 30 40  1  0
 40 41  2  0
 40 42  1  0
 42 43  1  0
 42 44  1  0
 44 45  2  0
 23 19  1  0
 45 25  1  0
 44 28  1  0
 38 32  1  0
M  CHG  1  15   1
M  END

