
     RDKit          3D

 15 15  0  0  0  0  0  0  0  0999 V2000
    4.9998   -1.5057    0.5978 C   0  0  0  0  0  0  0  0  0  0  0  0
    4.2377   -0.3643   -0.0524 C   0  0  0  0  0  0  0  0  0  0  0  0
    4.3533    0.8243    0.8880 C   0  0  0  0  0  0  0  0  0  0  0  0
    2.8103   -0.7786   -0.1809 C   0  0  0  0  0  0  0  0  0  0  0  0
    1.9862    0.2430   -0.7932 N   0  0  0  0  0  0  0  0  0  0  0  0
    0.5782   -0.0141   -0.9847 C   0  0  0  0  0  0  0  0  0  0  0  0
    0.1921   -1.1388   -0.5873 O   0  0  0  0  0  0  0  0  0  0  0  0
   -0.3134    0.9712   -1.5959 C   0  0  0  0  0  0  0  0  0  0  0  0
   -1.7362    0.5842   -1.6438 C   0  0  0  0  0  0  0  0  0  0  0  0
   -2.3029    0.3836   -0.3079 C   0  0  0  0  0  0  0  0  0  0  0  0
   -2.8225    1.4549    0.3738 C   0  0  0  0  0  0  0  0  0  0  0  0
   -3.3683    1.2594    1.6120 C   0  0  0  0  0  0  0  0  0  0  0  0
   -3.4042    0.0105    2.1817 C   0  0  0  0  0  0  0  0  0  0  0  0
   -2.8789   -1.0649    1.4892 C   0  0  0  0  0  0  0  0  0  0  0  0
   -2.3312   -0.8647    0.2454 C   0  0  0  0  0  0  0  0  0  0  0  0
  1  2  1  0
  2  3  1  0
  2  4  1  0
  4  5  1  0
  5  6  1  0
  6  7  2  0
  6  8  1  0
  8  9  1  0
  9 10  1  0
 10 11  2  0
 11 12  1  0
 12 13  2  0
 13 14  1  0
 14 15  2  0
 15 10  1  0
M  END

