
     RDKit          3D

 50 53  0  0  0  0  0  0  0  0999 V2000
   -3.3629   -2.0613   -0.3445 C   0  0  0  0  0  0  0  0  0  0  0  0
   -4.3650   -0.8877    0.2376 C   0  0  2  0  0  0  0  0  0  0  0  0
   -5.6175   -1.3704   -0.7175 C   0  0  0  0  0  0  0  0  0  0  0  0
   -6.6341   -0.4193   -0.3336 N   0  0  0  0  0  0  0  0  0  0  0  0
   -6.9196    0.7653   -0.8331 N   0  0  0  0  0  0  0  0  0  0  0  0
   -7.9552    1.3259   -0.1717 C   0  0  0  0  0  0  0  0  0  0  0  0
   -8.2888    0.4147    0.7642 N   0  0  0  0  0  0  0  0  0  0  0  0
   -7.4842   -0.6264    0.6512 N   0  0  0  0  0  0  0  0  0  0  0  0
   -3.8739    0.1932   -0.7638 N   0  0  0  0  0  0  0  0  0  0  0  0
   -2.5041    0.5465   -0.7406 C   0  0  0  0  0  0  0  0  0  0  0  0
   -1.9923    1.4702   -1.5697 N   0  0  0  0  0  0  0  0  0  0  0  0
   -0.6826    1.7715   -1.5090 C   0  0  0  0  0  0  0  0  0  0  0  0
    0.1567    1.1405   -0.5982 C   0  0  0  0  0  0  0  0  0  0  0  0
    1.4814    1.4049   -0.4950 C   0  0  0  0  0  0  0  0  0  0  0  0
    2.3255    0.7297    0.4638 C   0  0  0  0  0  0  0  0  0  0  0  0
    3.6157    1.0859    0.4647 O   0  0  0  0  0  0  0  0  0  0  0  0
    4.7850    0.5176    0.1799 C   0  0  0  0  0  0  0  0  0  0  0  0
    5.4353    1.1155   -0.9564 C   0  0  0  0  0  0  0  0  0  0  0  0
    6.6378    0.7042   -1.4307 C   0  0  0  0  0  0  0  0  0  0  0  0
    7.3033   -0.3390   -0.8187 C   0  0  0  0  0  0  0  0  0  0  0  0
    8.5056   -0.7313   -1.3143 F   0  0  0  0  0  0  0  0  0  0  0  0
    6.6998   -0.9112    0.2556 C   0  0  0  0  0  0  0  0  0  0  0  0
    5.4545   -0.4975    0.7610 C   0  0  0  0  0  0  0  0  0  0  0  0
    5.0302   -1.1666    1.8600 F   0  0  0  0  0  0  0  0  0  0  0  0
    1.7452   -0.1945    1.2760 C   0  0  0  0  0  0  0  0  0  0  0  0
    2.3575   -0.8603    2.1660 O   0  0  0  0  0  0  0  0  0  0  0  0
    0.4146   -0.4290    1.1382 N   0  0  0  0  0  0  0  0  0  0  0  0
   -0.2083   -1.4099    1.9963 C   0  0  0  0  0  0  0  0  0  0  0  0
   -0.3679    0.1971    0.2481 C   0  0  0  0  0  0  0  0  0  0  0  0
   -1.6919   -0.0579    0.1342 N   0  0  0  0  0  0  0  0  0  0  0  0
    5.4799   -0.3019   -2.6873 N   0  0  0  0  0  0  0  0  0  0  0  0
    5.1920   -0.0591   -1.3024 C   0  0  0  0  0  0  0  0  0  0  0  0
    5.7179    0.9685   -0.6995 N   0  0  0  0  0  4  0  0  0  0  0  0
    4.3322   -0.9420   -0.5908 N   0  0  0  0  0  0  0  0  0  0  0  0
    4.0734   -0.6499    0.8113 C   0  0  0  0  0  0  0  0  0  0  0  0
    3.1241   -1.7356    1.3609 C   0  0  0  0  0  0  0  0  0  0  0  0
    2.8980   -1.3803    2.7990 C   0  0  0  0  0  0  0  0  0  0  0  0
    2.2256   -0.0665    2.9316 C   0  0  0  0  0  0  0  0  0  0  0  0
    0.9313    0.0410    2.4297 N   0  0  0  0  0  0  0  0  0  0  0  0
    0.3262   -0.1053    1.2030 C   0  0  0  0  0  0  0  0  0  0  0  0
    1.0264   -0.4127    0.2121 O   0  0  0  0  0  0  0  0  0  0  0  0
   -1.1359    0.0795    0.9607 C   0  0  0  0  0  0  0  0  0  0  0  0
   -1.4448   -0.1596   -0.4970 C   0  0  0  0  0  0  0  0  0  0  0  0
   -2.8974    0.0271   -0.7216 C   0  0  0  0  0  0  0  0  0  0  0  0
   -3.4443    1.2430   -1.0557 C   0  0  0  0  0  0  0  0  0  0  0  0
   -4.7980    1.4070   -1.2628 C   0  0  0  0  0  0  0  0  0  0  0  0
   -5.6673    0.3431   -1.1411 C   0  0  0  0  0  0  0  0  0  0  0  0
   -7.0419    0.4872   -1.3465 O   0  0  0  0  0  0  0  0  0  0  0  0
   -5.1263   -0.8808   -0.8059 C   0  0  0  0  0  0  0  0  0  0  0  0
   -3.7714   -1.0491   -0.5978 C   0  0  0  0  0  0  0  0  0  0  0  0
  2  1  1  6
  2  3  1  0
  3  4  1  0
  4  5  1  0
  5  6  2  0
  6  7  1  0
  7  8  2  0
  2  9  1  0
  9 10  1  0
 10 11  2  0
 11 12  1  0
 12 13  2  0
 13 14  1  0
 14 15  2  0
 15 16  1  0
 16 17  1  0
 17 18  2  0
 18 19  1  0
 19 20  2  0
 20 21  1  0
 20 22  1  0
 22 23  2  0
 23 24  1  0
 15 25  1  0
 25 26  2  0
 25 27  1  0
 27 28  1  0
 27 29  1  0
 29 30  2  0
 31 32  1  0
 32 33  2  0
 32 34  1  0
 34 35  1  0
 35 36  1  0
 36 37  1  0
 37 38  1  0
 38 39  1  0
 39 40  1  0
 40 41  2  0
 40 42  1  0
 42 43  1  0
 43 44  1  0
 44 45  2  0
 45 46  1  0
 46 47  2  0
 47 48  1  0
 47 49  1  0
 49 50  2  0
  8  4  1  0
 30 10  1  0
 50 44  1  0
 29 13  1  0
 23 17  1  0
M  CHG  1  33   1
M  END

