
     RDKit          3D

 13 12  0  0  0  0  0  0  0  0999 V2000
   -4.1896    2.3627    1.6774 C   0  0  0  0  0  0  0  0  0  0  0  0
   -3.1771    2.1806    0.5563 C   0  0  0  0  0  0  0  0  0  0  0  0
   -2.5889    0.6929    0.9431 C   0  0  2  0  0  0  0  0  0  0  0  0
   -2.0586    1.1952    2.4221 C   0  0  0  0  0  0  0  0  0  0  0  0
   -1.1355    0.9601    0.2385 C   0  0  0  0  0  0  0  0  0  0  0  0
   -0.3611   -0.3017    0.4543 C   0  0  0  0  0  0  0  0  0  0  0  0
   -0.8534   -1.2645    1.0602 O   0  0  0  0  0  0  0  0  0  0  0  0
    0.9491   -0.4246   -0.0276 N   0  0  0  0  0  0  0  0  0  0  0  0
    1.7906   -1.5843    0.1179 C   0  0  0  0  0  0  0  0  0  0  0  0
    3.1089   -1.2541   -0.5581 C   0  0  0  0  0  0  0  0  0  0  0  0
    2.9058   -0.9461   -1.9988 C   0  0  0  0  0  0  0  0  0  0  0  0
    1.6837   -0.9608   -2.6268 O   0  0  0  0  0  1  0  0  0  0  0  0
    3.9260   -0.6553   -2.6732 O   0  0  0  0  0  0  0  0  0  0  0  0
  1  2  1  0
  2  3  1  0
  3  4  1  1
  3  5  1  0
  5  6  1  0
  6  7  2  0
  6  8  1  0
  8  9  1  0
  9 10  1  0
 10 11  1  0
 11 12  1  0
 11 13  2  0
M  RAD  1  12   2
M  END

