
     RDKit          3D

 43 46  0  0  0  0  0  0  0  0999 V2000
    4.2024   -0.1485   -1.0108 C   0  0  0  0  0  0  0  0  0  0  0  0
    3.4766    1.1788   -0.8002 C   0  0  0  0  0  0  0  0  0  0  0  0
    2.6314    1.1429    0.3729 N   0  0  0  0  0  0  0  0  0  0  0  0
    1.5592    0.1961    0.4874 C   0  0  0  0  0  0  0  0  0  0  0  0
    1.3994   -0.5824   -0.4672 O   0  0  0  0  0  0  0  0  0  0  0  0
    0.7404    0.2218    1.7163 C   0  0  0  0  0  0  0  0  0  0  0  0
   -0.3782   -0.7452    1.7586 C   0  0  0  0  0  0  0  0  0  0  0  0
   -1.3404   -0.4922    0.6600 C   0  0  0  0  0  0  0  0  0  0  0  0
   -1.2562   -1.1039   -0.5669 C   0  0  0  0  0  0  0  0  0  0  0  0
   -2.1798   -0.8260   -1.5430 C   0  0  0  0  0  0  0  0  0  0  0  0
   -3.1910    0.0635   -1.2983 C   0  0  0  0  0  0  0  0  0  0  0  0
   -3.2868    0.6789   -0.0832 C   0  0  0  0  0  0  0  0  0  0  0  0
   -2.3768    0.4162    0.9033 C   0  0  0  0  0  0  0  0  0  0  0  0
    3.8774   -0.3239    1.5840 C   0  0  0  0  0  0  0  0  0  0  0  0
    4.4686   -1.7037    0.9006 C   0  0  2  0  0  0  0  0  0  0  0  0
    6.0267   -1.1908    0.8878 C   0  0  0  0  0  0  0  0  0  0  0  0
    6.1139   -0.0081    0.1128 N   0  0  0  0  0  0  0  0  0  0  0  0
    6.3410    0.1823   -1.1824 N   0  0  0  0  0  0  0  0  0  0  0  0
    6.3246    1.5029   -1.4231 C   0  0  0  0  0  0  0  0  0  0  0  0
    6.0845    2.1350   -0.2623 N   0  0  0  0  0  0  0  0  0  0  0  0
    5.9597    1.2118    0.6546 N   0  0  0  0  0  0  0  0  0  0  0  0
    4.1633   -1.2446   -0.5658 N   0  0  0  0  0  0  0  0  0  0  0  0
    2.7694   -0.9946   -0.7774 C   0  0  0  0  0  0  0  0  0  0  0  0
    2.3300   -0.5879   -1.9959 N   0  0  0  0  0  0  0  0  0  0  0  0
    1.0424   -0.3332   -2.2745 C   0  0  0  0  0  0  0  0  0  0  0  0
    0.1147   -0.4978   -1.2525 C   0  0  0  0  0  0  0  0  0  0  0  0
   -1.2026   -0.2714   -1.4166 C   0  0  0  0  0  0  0  0  0  0  0  0
   -2.1383   -0.4496   -0.3427 C   0  0  0  0  0  0  0  0  0  0  0  0
   -3.4087   -0.2116   -0.5750 O   0  0  0  0  0  0  0  0  0  0  0  0
   -4.5327    0.4359   -0.3824 C   0  0  0  0  0  0  0  0  0  0  0  0
   -5.0804    1.1839   -1.4870 C   0  0  0  0  0  0  0  0  0  0  0  0
   -6.2324    1.8782   -1.3782 C   0  0  0  0  0  0  0  0  0  0  0  0
   -6.9062    1.8717   -0.1735 C   0  0  0  0  0  0  0  0  0  0  0  0
   -8.0635    2.5632   -0.0437 F   0  0  0  0  0  0  0  0  0  0  0  0
   -6.4298    1.1787    0.9025 C   0  0  0  0  0  0  0  0  0  0  0  0
   -5.2394    0.4679    0.7707 C   0  0  0  0  0  0  0  0  0  0  0  0
   -4.8989   -0.1961    1.9277 F   0  0  0  0  0  0  0  0  0  0  0  0
   -1.5979   -0.8576    0.8294 C   0  0  0  0  0  0  0  0  0  0  0  0
   -2.2788   -1.0681    1.8846 O   0  0  0  0  0  0  0  0  0  0  0  0
   -0.2795   -1.0883    1.0090 N   0  0  0  0  0  0  0  0  0  0  0  0
    0.2513   -1.5314    2.3111 C   0  0  0  0  0  0  0  0  0  0  0  0
    0.5610   -0.9093   -0.0205 C   0  0  0  0  0  0  0  0  0  0  0  0
    1.8607   -1.1432    0.1793 N   0  0  0  0  0  0  0  0  0  0  0  0
  1  2  1  0
  2  3  1  0
  3  4  1  0
  4  5  2  0
  4  6  1  0
  6  7  1  0
  7  8  1  0
  8  9  2  0
  9 10  1  0
 10 11  2  0
 11 12  1  0
 12 13  2  0
 15 14  1  1
 15 16  1  0
 16 17  1  0
 17 18  1  0
 18 19  2  0
 19 20  1  0
 20 21  2  0
 15 22  1  0
 22 23  1  0
 23 24  2  0
 24 25  1  0
 25 26  2  0
 26 27  1  0
 27 28  2  0
 28 29  1  0
 29 30  1  0
 30 31  2  0
 31 32  1  0
 32 33  2  0
 33 34  1  0
 33 35  1  0
 35 36  2  0
 36 37  1  0
 28 38  1  0
 38 39  2  0
 38 40  1  0
 40 41  1  0
 40 42  1  0
 42 43  2  0
 13  8  1  0
 21 17  1  0
 43 23  1  0
 42 26  1  0
 36 30  1  0
M  END

