
     RDKit          3D

 16 16  0  0  0  0  0  0  0  0999 V2000
    5.8132   -0.4151   -0.2869 C   0  0  0  0  0  0  0  0  0  0  0  0
    5.4659    1.0597   -0.3017 C   0  0  0  0  0  0  0  0  0  0  0  0
    6.4193    1.7527   -1.2665 C   0  0  0  0  0  0  0  0  0  0  0  0
    4.0585    1.1953   -0.8570 C   0  0  0  0  0  0  0  0  0  0  0  0
    3.1020    0.4188    0.0521 C   0  0  0  0  0  0  0  0  0  0  0  0
    1.7542    0.5438   -0.4725 N   0  0  0  0  0  0  0  0  0  0  0  0
    0.6886   -0.0888    0.1959 C   0  0  0  0  0  0  0  0  0  0  0  0
    0.9366   -0.7399    1.2228 O   0  0  0  0  0  0  0  0  0  0  0  0
   -0.7273   -0.0087   -0.2794 C   0  0  0  0  0  0  0  0  0  0  0  0
   -1.6329   -0.7861    0.6441 C   0  0  0  0  0  0  0  0  0  0  0  0
   -3.0275   -0.6444    0.0829 C   0  0  0  0  0  0  0  0  0  0  0  0
   -3.8412    0.3929    0.4777 C   0  0  0  0  0  0  0  0  0  0  0  0
   -5.1228    0.5834    0.0078 C   0  0  0  0  0  0  0  0  0  0  0  0
   -5.5842   -0.3372   -0.9097 C   0  0  0  0  0  0  0  0  0  0  0  0
   -4.7880   -1.3797   -1.3168 C   0  0  0  0  0  0  0  0  0  0  0  0
   -3.5143   -1.5468   -0.8330 C   0  0  0  0  0  0  0  0  0  0  0  0
  1  2  1  0
  2  3  1  0
  2  4  1  0
  4  5  1  0
  5  6  1  0
  6  7  1  0
  7  8  2  0
  7  9  1  0
  9 10  1  0
 10 11  1  0
 11 12  2  0
 12 13  1  0
 13 14  2  0
 14 15  1  0
 15 16  2  0
 16 11  1  0
M  END

