
     RDKit          3D

 39 41  0  0  0  0  0  0  0  0999 V2000
   -2.4393    1.6763   -0.0715 C   0  0  0  0  0  0  0  0  0  0  0  0
   -1.6445    0.4298    0.0908 C   0  0  0  0  0  0  0  0  0  0  0  0
   -1.6516   -0.1978    1.1705 O   0  0  0  0  0  0  0  0  0  0  0  0
   -0.8407   -0.1122   -0.9613 N   0  0  0  0  0  0  0  0  0  0  0  0
   -0.0707   -1.3473   -0.7574 C   0  0  0  0  0  0  0  0  0  0  0  0
    0.9222   -1.2084    0.3544 C   0  0  0  0  0  0  0  0  0  0  0  0
    1.9115   -0.0853    0.0423 C   0  0  0  0  0  0  0  0  0  0  0  0
    2.6635   -0.3779   -1.2404 C   0  0  0  0  0  0  0  0  0  0  0  0
    1.1496    1.2228   -0.1944 C   0  0  0  0  0  0  0  0  0  0  0  0
   -4.4076    0.7161    0.1535 C   0  0  0  0  0  0  0  0  0  0  0  0
   -4.6023    1.1096   -1.4478 C   0  0  2  0  0  0  0  0  0  0  0  0
   -5.7699   -0.0491   -1.6680 C   0  0  0  0  0  0  0  0  0  0  0  0
   -6.7672    0.3945   -0.7110 N   0  0  0  0  0  0  0  0  0  0  0  0
   -6.8011    0.0027    0.5337 N   0  0  0  0  0  0  0  0  0  0  0  0
   -7.8267    0.5878    1.1339 C   0  0  0  0  0  0  0  0  0  0  0  0
   -8.4492    1.3715    0.2210 N   0  0  0  0  0  0  0  0  0  0  0  0
   -7.7799    1.2288   -0.8830 N   0  0  0  0  0  0  0  0  0  0  0  0
   -3.4527    0.1766   -1.9373 N   0  0  0  0  0  0  0  0  0  0  0  0
   -2.1465    0.4616   -1.4040 C   0  0  0  0  0  0  0  0  0  0  0  0
   -1.9739    1.4761   -0.5424 N   0  0  0  0  0  0  0  0  0  0  0  0
   -0.7625    1.7722   -0.0221 C   0  0  0  0  0  0  0  0  0  0  0  0
    0.3652    1.0479   -0.3477 C   0  0  0  0  0  0  0  0  0  0  0  0
    1.6332    1.3114    0.1592 C   0  0  0  0  0  0  0  0  0  0  0  0
    2.7210    0.5512   -0.2048 C   0  0  0  0  0  0  0  0  0  0  0  0
    3.9598    0.8247    0.3035 O   0  0  0  0  0  0  0  0  0  0  0  0
    4.6372   -0.1574    1.0509 C   0  0  0  0  0  0  0  0  0  0  0  0
    4.0595   -1.3930    1.2737 C   0  0  0  0  0  0  0  0  0  0  0  0
    4.6947   -2.3765    2.0006 C   0  0  0  0  0  0  0  0  0  0  0  0
    5.9422   -2.1077    2.5152 C   0  0  0  0  0  0  0  0  0  0  0  0
    6.5403   -3.0934    3.2244 F   0  0  0  0  0  0  0  0  0  0  0  0
    6.5082   -0.8773    2.2888 C   0  0  0  0  0  0  0  0  0  0  0  0
    5.8850    0.1183    1.5629 C   0  0  0  0  0  0  0  0  0  0  0  0
    6.4168    1.3257    1.3289 F   0  0  0  0  0  0  0  0  0  0  0  0
    2.4970   -0.4748   -1.0876 C   0  0  0  0  0  0  0  0  0  0  0  0
    3.4791   -1.1819   -1.4330 O   0  0  0  0  0  0  0  0  0  0  0  0
    1.2488   -0.7187   -1.5741 N   0  0  0  0  0  0  0  0  0  0  0  0
    1.0465   -1.8114   -2.5060 C   0  0  0  0  0  0  0  0  0  0  0  0
    0.1689    0.0083   -1.2353 C   0  0  0  0  0  0  0  0  0  0  0  0
   -1.0639   -0.2436   -1.7246 N   0  0  0  0  0  0  0  0  0  0  0  0
  1  2  1  0
  2  3  2  0
  2  4  1  0
  4  5  1  0
  5  6  1  0
  6  7  1  0
  7  8  1  0
  7  9  1  0
 11 10  1  1
 11 12  1  0
 12 13  1  0
 13 14  1  0
 14 15  2  0
 15 16  1  0
 16 17  2  0
 11 18  1  0
 18 19  1  0
 19 20  2  0
 20 21  1  0
 21 22  2  0
 22 23  1  0
 23 24  2  0
 24 25  1  0
 25 26  1  0
 26 27  2  0
 27 28  1  0
 28 29  2  0
 29 30  1  0
 29 31  1  0
 31 32  2  0
 32 33  1  0
 24 34  1  0
 34 35  2  0
 34 36  1  0
 36 37  1  0
 36 38  1  0
 38 39  2  0
 17 13  1  0
 39 19  1  0
 38 22  1  0
 32 26  1  0
M  END

