
     RDKit          3D

 20 21  0  0  0  0  0  0  0  0999 V2000
    1.2170   -1.4234   -1.9648 O   0  0  0  0  0  0  0  0  0  0  0  0
    0.7265   -0.4510   -1.3344 C   0  0  0  0  0  0  0  0  0  0  0  0
   -0.6409   -0.5817   -0.8156 C   0  0  0  0  0  0  0  0  0  0  0  0
   -1.2835   -1.8920   -1.1164 C   0  0  0  0  0  0  0  0  0  0  0  0
   -2.6488   -1.8935   -0.5423 C   0  0  0  0  0  0  0  0  0  0  0  0
   -3.7307   -1.4567   -1.2679 C   0  0  0  0  0  0  0  0  0  0  0  0
   -5.0183   -1.4613   -0.7178 C   0  0  0  0  0  0  0  0  0  0  0  0
   -5.2058   -1.9088    0.5668 C   0  0  0  0  0  0  0  0  0  0  0  0
   -6.5130   -1.8869    1.0536 O   0  0  0  0  0  0  0  0  0  0  0  0
   -4.1398   -2.3494    1.3093 C   0  0  0  0  0  0  0  0  0  0  0  0
   -2.8854   -2.3319    0.7382 C   0  0  0  0  0  0  0  0  0  0  0  0
    1.5420    0.6949   -1.1781 N   0  0  0  0  0  0  0  0  0  0  0  0
    2.9035    0.7533   -1.7259 C   0  0  0  0  0  0  0  0  0  0  0  0
    3.5645    2.0573   -1.4356 C   0  0  0  0  0  0  0  0  0  0  0  0
    3.6252    2.2145    0.0611 C   0  0  0  0  0  0  0  0  0  0  0  0
    4.7152    1.7431    0.7452 C   0  0  0  0  0  0  0  0  0  0  0  0
    4.7718    1.8867    2.1166 C   0  0  0  0  0  0  0  0  0  0  0  0
    3.7375    2.4997    2.7849 C   0  0  0  0  0  0  0  0  0  0  0  0
    2.6545    2.9674    2.0998 C   0  0  0  0  0  0  0  0  0  0  0  0
    2.6084    2.8199    0.7396 C   0  0  0  0  0  0  0  0  0  0  0  0
  1  2  2  0
  2  3  1  0
  3  4  1  0
  4  5  1  0
  5  6  2  0
  6  7  1  0
  7  8  2  0
  8  9  1  0
  8 10  1  0
 10 11  2  0
  2 12  1  0
 12 13  1  0
 13 14  1  0
 14 15  1  0
 15 16  2  0
 16 17  1  0
 17 18  2  0
 18 19  1  0
 19 20  2  0
 11  5  1  0
 20 15  1  0
M  END

