
     RDKit          3D

 42 44  0  0  0  0  0  0  0  0999 V2000
    3.7873   -0.5840   -0.7464 C   0  0  0  0  0  0  0  0  0  0  0  0
    3.2011    0.5867    0.0221 C   0  0  0  0  0  0  0  0  0  0  0  0
    4.0110    1.8146   -0.3666 C   0  0  0  0  0  0  0  0  0  0  0  0
    1.7935    0.8247   -0.4646 C   0  0  0  0  0  0  0  0  0  0  0  0
    0.9222   -0.3580   -0.2602 C   0  0  0  0  0  0  0  0  0  0  0  0
    1.2991   -1.4359    0.2558 O   0  0  0  0  0  0  0  0  0  0  0  0
   -0.4280   -0.2592   -0.6779 N   0  0  0  0  0  0  0  0  0  0  0  0
   -1.3775   -1.3369   -0.5354 C   0  0  0  0  0  0  0  0  0  0  0  0
   -2.7429   -0.9676   -1.0602 C   0  0  0  0  0  0  0  0  0  0  0  0
   -3.2914    0.2080   -0.3272 C   0  0  0  0  0  0  0  0  0  0  0  0
   -4.5301    0.7294   -0.6322 O   0  0  0  0  0  1  0  0  0  0  0  0
   -2.6443    0.7781    0.6064 O   0  0  0  0  0  0  0  0  0  0  0  0
    3.5311    1.6499    1.3916 C   0  0  0  0  0  0  0  0  0  0  0  0
    4.2712    0.9047    0.1097 C   0  0  1  0  0  0  0  0  0  0  0  0
    5.6584    0.6180    1.0015 C   0  0  0  0  0  0  0  0  0  0  0  0
    6.5443   -0.0627    0.0942 N   0  0  0  0  0  0  0  0  0  0  0  0
    7.3849    0.6152   -0.6703 N   0  0  0  0  0  0  0  0  0  0  0  0
    8.1078   -0.2221   -1.4311 C   0  0  0  0  0  0  0  0  0  0  0  0
    7.6790   -1.4467   -1.1053 N   0  0  0  0  0  0  0  0  0  0  0  0
    6.7391   -1.3161   -0.1858 N   0  0  0  0  0  0  0  0  0  0  0  0
    3.6342   -0.4926    0.4300 N   0  0  0  0  0  0  0  0  0  0  0  0
    2.2173   -0.4360    0.3805 C   0  0  0  0  0  0  0  0  0  0  0  0
    1.5050   -1.5845    0.6390 N   0  0  0  0  0  0  0  0  0  0  0  0
    0.1701   -1.5408    0.5947 C   0  0  0  0  0  0  0  0  0  0  0  0
   -0.4661   -0.3561    0.2933 C   0  0  0  0  0  0  0  0  0  0  0  0
   -1.8644   -0.2690    0.2369 C   0  0  0  0  0  0  0  0  0  0  0  0
   -2.4942    0.9055   -0.0618 C   0  0  0  0  0  0  0  0  0  0  0  0
   -3.8663    0.9578   -0.1091 O   0  0  0  0  0  0  0  0  0  0  0  0
   -4.6982   -0.1185    0.1289 C   0  0  0  0  0  0  0  0  0  0  0  0
   -4.1134   -1.3234    0.4339 C   0  0  0  0  0  0  0  0  0  0  0  0
   -4.8773   -2.4446    0.6845 C   0  0  0  0  0  0  0  0  0  0  0  0
   -6.2541   -2.3679    0.6311 C   0  0  0  0  0  0  0  0  0  0  0  0
   -7.0454   -3.4634    0.8749 F   0  0  0  0  0  0  0  0  0  0  0  0
   -6.8007   -1.1406    0.3218 C   0  0  0  0  0  0  0  0  0  0  0  0
   -6.0636   -0.0087    0.0679 C   0  0  0  0  0  0  0  0  0  0  0  0
   -6.6677    1.1839   -0.2345 F   0  0  0  0  0  0  0  0  0  0  0  0
   -1.7461    2.0287   -0.3133 C   0  0  0  0  0  0  0  0  0  0  0  0
   -2.3019    3.0987   -0.5850 O   0  0  0  0  0  0  0  0  0  0  0  0
   -0.3808    1.9689   -0.2643 N   0  0  0  0  0  0  0  0  0  0  0  0
    0.3863    3.1522   -0.5298 C   0  0  0  0  0  0  0  0  0  0  0  0
    0.2311    0.8054    0.0313 C   0  0  0  0  0  0  0  0  0  0  0  0
    1.5803    0.7048    0.0897 N   0  0  0  0  0  0  0  0  0  0  0  0
  1  2  1  0
  2  3  1  0
  2  4  1  0
  4  5  1  0
  5  6  2  0
  5  7  1  0
  7  8  1  0
  8  9  1  0
  9 10  1  0
 10 11  1  0
 10 12  2  0
 14 13  1  6
 14 15  1  0
 15 16  1  0
 16 17  1  0
 17 18  2  0
 18 19  1  0
 19 20  2  0
 14 21  1  0
 21 22  1  0
 22 23  2  0
 23 24  1  0
 24 25  2  0
 25 26  1  0
 26 27  2  0
 27 28  1  0
 28 29  1  0
 29 30  2  0
 30 31  1  0
 31 32  2  0
 32 33  1  0
 32 34  1  0
 34 35  2  0
 35 36  1  0
 27 37  1  0
 37 38  2  0
 37 39  1  0
 39 40  1  0
 39 41  1  0
 41 42  2  0
 20 16  1  0
 42 22  1  0
 41 25  1  0
 35 29  1  0
M  RAD  1  11   2
M  END

