
     RDKit          3D

 37 39  0  0  0  0  0  0  0  0999 V2000
   -2.4690    1.1900    0.1663 C   0  0  0  0  0  0  0  0  0  0  0  0
   -1.4822    0.0737    0.1708 C   0  0  0  0  0  0  0  0  0  0  0  0
   -1.8348   -1.1123   -0.0903 O   0  0  0  0  0  0  0  0  0  0  0  0
   -0.1088    0.2594    0.4620 N   0  0  0  0  0  0  0  0  0  0  0  0
    0.8414   -0.8570    0.4596 C   0  0  0  0  0  0  0  0  0  0  0  0
    2.2220   -0.3935    0.7976 C   0  0  0  0  0  0  0  0  0  0  0  0
    2.8314    0.8397   -0.3922 S   0  0  0  0  0  0  0  0  0  0  0  0
    5.8924   -1.5002   -0.2997 C   0  0  0  0  0  0  0  0  0  0  0  0
    4.4086   -0.9055   -0.7307 C   0  0  2  0  0  0  0  0  0  0  0  0
    4.3694    0.1480    0.5448 C   0  0  0  0  0  0  0  0  0  0  0  0
    5.5181    0.9990    0.3631 N   0  0  0  0  0  0  0  0  0  0  0  0
    6.7002    0.6887    0.8892 N   0  0  0  0  0  0  0  0  0  0  0  0
    7.5827    1.6519    0.5636 C   0  0  0  0  0  0  0  0  0  0  0  0
    6.8772    2.5342   -0.1697 N   0  0  0  0  0  0  0  0  0  0  0  0
    5.6260    2.1440   -0.2945 N   0  0  0  0  0  0  0  0  0  0  0  0
    3.6372   -2.0439    0.0448 N   0  0  0  0  0  0  0  0  0  0  0  0
    2.2298   -1.9681   -0.0267 C   0  0  0  0  0  0  0  0  0  0  0  0
    1.5517   -2.9090    0.6137 N   0  0  0  0  0  0  0  0  0  0  0  0
    0.2006   -2.9268    0.6076 C   0  0  0  0  0  0  0  0  0  0  0  0
   -0.5275   -1.9658   -0.0658 C   0  0  0  0  0  0  0  0  0  0  0  0
   -1.9077   -1.9937   -0.0653 C   0  0  0  0  0  0  0  0  0  0  0  0
   -2.5460   -0.9726   -0.7790 C   0  0  0  0  0  0  0  0  0  0  0  0
   -3.9349   -0.9575   -0.8084 O   0  0  0  0  0  0  0  0  0  0  0  0
   -4.6601    0.1095   -0.3212 C   0  0  0  0  0  0  0  0  0  0  0  0
   -5.4901    0.7745   -1.1932 C   0  0  0  0  0  0  0  0  0  0  0  0
   -6.2192    1.8522   -0.6909 C   0  0  0  0  0  0  0  0  0  0  0  0
   -6.1235    2.2490    0.6270 C   0  0  0  0  0  0  0  0  0  0  0  0
   -6.8616    3.3035    1.0419 F   0  0  0  0  0  0  0  0  0  0  0  0
   -5.2813    1.5665    1.4919 C   0  0  0  0  0  0  0  0  0  0  0  0
   -4.5470    0.4842    0.9939 C   0  0  0  0  0  0  0  0  0  0  0  0
   -3.7388   -0.1464    1.8864 F   0  0  0  0  0  0  0  0  0  0  0  0
   -1.8231   -0.0012   -1.4398 C   0  0  0  0  0  0  0  0  0  0  0  0
   -2.4694    0.8791   -2.0564 O   0  0  0  0  0  0  0  0  0  0  0  0
   -0.4837   -0.0451   -1.3913 N   0  0  0  0  0  0  0  0  0  0  0  0
    0.2618    0.9776   -2.0872 C   0  0  0  0  0  0  0  0  0  0  0  0
    0.2071   -1.0002   -0.7225 C   0  0  0  0  0  0  0  0  0  0  0  0
    1.5511   -1.0261   -0.6863 N   0  0  0  0  0  0  0  0  0  0  0  0
  1  2  1  0
  2  3  2  0
  2  4  1  0
  4  5  1  0
  5  6  1  0
  6  7  1  0
  9  8  1  1
  9 10  1  0
 10 11  1  0
 11 12  1  0
 12 13  2  0
 13 14  1  0
 14 15  2  0
  9 16  1  0
 16 17  1  0
 17 18  2  0
 18 19  1  0
 19 20  2  0
 20 21  1  0
 21 22  2  0
 22 23  1  0
 23 24  1  0
 24 25  2  0
 25 26  1  0
 26 27  2  0
 27 28  1  0
 27 29  1  0
 29 30  2  0
 30 31  1  0
 22 32  1  0
 32 33  2  0
 32 34  1  0
 34 35  1  0
 34 36  1  0
 36 37  2  0
 15 11  1  0
 37 17  1  0
 36 20  1  0
 30 24  1  0
M  END

