
     RDKit          3D

 13 12  0  0  0  0  0  0  0  0999 V2000
    4.5779    0.1725   -0.1448 O   0  0  0  0  0  1  0  0  0  0  0  0
    3.2759    0.3777    0.2897 C   0  0  0  0  0  0  0  0  0  0  0  0
    2.5074    0.9898   -0.5087 O   0  0  0  0  0  0  0  0  0  0  0  0
    2.8434   -0.1130    1.6285 C   0  0  0  0  0  0  0  0  0  0  0  0
    1.3693    0.2224    1.7479 C   0  0  0  0  0  0  0  0  0  0  0  0
    0.7095   -0.4826    0.6591 N   0  0  0  0  0  0  0  0  0  0  0  0
   -0.6674   -0.4337    0.4054 C   0  0  0  0  0  0  0  0  0  0  0  0
   -1.4024    0.2597    1.1483 O   0  0  0  0  0  0  0  0  0  0  0  0
   -1.1886   -1.2214   -0.7518 C   0  0  0  0  0  0  0  0  0  0  0  0
   -2.6865   -1.0037   -0.8989 C   0  0  0  0  0  0  0  0  0  0  0  0
   -2.9982    0.4119   -1.1477 C   0  0  0  0  0  0  0  0  0  0  0  0
   -3.8508    1.0880   -0.3004 O   0  0  0  0  0  1  0  0  0  0  0  0
   -2.4895    0.9977   -2.1263 O   0  0  0  0  0  0  0  0  0  0  0  0
  1  2  1  0
  2  3  2  0
  2  4  1  0
  4  5  1  0
  5  6  1  0
  6  7  1  0
  7  8  2  0
  7  9  1  0
  9 10  1  0
 10 11  1  0
 11 12  1  0
 11 13  2  0
M  RAD  2   1   2  12   2
M  END

