
     RDKit          3D

 16 17  0  0  0  0  0  0  0  0999 V2000
    0.5145    0.2617    1.0190 O   0  0  0  0  0  0  0  0  0  0  0  0
    1.2114    0.8290    0.2045 C   0  0  0  0  0  0  0  0  0  0  0  0
    0.8368    1.9598   -0.5288 N   0  0  0  0  0  0  0  0  0  0  0  0
   -0.3990    2.5931   -0.4441 C   0  0  0  0  0  0  0  0  0  0  0  0
   -1.6284    1.9953   -0.8385 C   0  0  0  0  0  0  0  0  0  0  0  0
   -2.0428    0.7436   -0.1980 C   0  0  0  0  0  0  0  0  0  0  0  0
   -2.6912    0.7051    1.0167 C   0  0  0  0  0  0  0  0  0  0  0  0
   -3.1196   -0.4470    1.5944 C   0  0  0  0  0  0  0  0  0  0  0  0
   -2.9112   -1.6496    0.9613 C   0  0  0  0  0  0  0  0  0  0  0  0
   -2.2636   -1.6567   -0.2611 C   0  0  0  0  0  0  0  0  0  0  0  0
   -1.8339   -0.4874   -0.8376 C   0  0  0  0  0  0  0  0  0  0  0  0
    2.6926    0.2861   -0.1003 C   0  0  2  0  0  0  0  0  0  0  0  0
    2.1898   -0.6807   -1.3679 C   0  0  0  0  0  0  0  0  0  0  0  0
    3.2882   -1.7064   -1.2166 C   0  0  0  0  0  0  0  0  0  0  0  0
    3.5341   -1.8265    0.2596 C   0  0  0  0  0  0  0  0  0  0  0  0
    2.6222   -0.9195    0.9186 N   0  0  0  0  0  0  0  0  0  0  0  0
  1  2  2  0
  2  3  1  0
  3  4  1  0
  4  5  1  0
  5  6  1  0
  6  7  2  0
  7  8  1  0
  8  9  2  0
  9 10  1  0
 10 11  2  0
 12  2  1  1
 12 13  1  0
 13 14  1  0
 14 15  1  0
 15 16  1  0
 11  6  1  0
 16 12  1  0
M  END

