
     RDKit          3D

 15 15  0  0  0  0  0  0  0  0999 V2000
   -5.2880   -1.8522    1.6688 C   0  0  0  0  0  0  0  0  0  0  0  0
   -5.2039   -1.0157    0.4311 C   0  0  0  0  0  0  0  0  0  0  0  0
   -4.0040    0.0778    0.6756 C   0  0  2  0  0  0  0  0  0  0  0  0
   -4.2145    0.7592   -0.8091 C   0  0  0  0  0  0  0  0  0  0  0  0
   -2.8010   -0.9031    0.1690 C   0  0  0  0  0  0  0  0  0  0  0  0
   -1.5530   -0.1215    0.2946 C   0  0  0  0  0  0  0  0  0  0  0  0
   -1.6468    1.0458    0.7286 O   0  0  0  0  0  0  0  0  0  0  0  0
   -0.2757   -0.6289   -0.0497 N   0  0  0  0  0  0  0  0  0  0  0  0
    0.9514    0.1498    0.0775 C   0  0  0  0  0  0  0  0  0  0  0  0
    2.1187   -0.6772   -0.3686 C   0  0  0  0  0  0  0  0  0  0  0  0
    3.3821    0.0820   -0.2531 C   0  0  0  0  0  0  0  0  0  0  0  0
    3.5567    1.3777    0.1936 C   0  0  0  0  0  0  0  0  0  0  0  0
    4.8783    1.6115    0.1118 N   0  0  0  0  0  0  0  0  0  0  0  0
    5.5138    0.5211   -0.3627 C   0  0  0  0  0  0  0  0  0  0  0  0
    4.5860   -0.4261   -0.5885 N   0  0  0  0  0  0  0  0  0  0  0  0
  1  2  1  0
  2  3  1  0
  3  4  1  6
  3  5  1  0
  5  6  1  0
  6  7  2  0
  6  8  1  0
  8  9  1  0
  9 10  1  0
 10 11  1  0
 11 12  2  0
 12 13  1  0
 13 14  1  0
 14 15  2  0
 15 11  1  0
M  END

