
     RDKit          3D

 47 50  0  0  0  0  0  0  0  0999 V2000
   -6.2233    1.7748   -0.7604 C   0  0  0  0  0  0  0  0  0  0  0  0
   -5.8983    0.3265   -0.4000 C   0  0  0  0  0  0  0  0  0  0  0  0
   -4.2968    0.2423   -0.8917 C   0  0  2  0  0  0  0  0  0  0  0  0
   -4.2374   -1.3518   -0.3984 C   0  0  0  0  0  0  0  0  0  0  0  0
   -3.7475    0.8027    0.5341 C   0  0  0  0  0  0  0  0  0  0  0  0
   -2.3484    0.9193    0.5078 N   0  0  0  0  0  0  0  0  0  0  0  0
   -1.3577   -0.0236    0.3232 C   0  0  0  0  0  0  0  0  0  0  0  0
   -1.6651   -1.2213    0.1427 O   0  0  0  0  0  0  0  0  0  0  0  0
    0.1042    0.2982    0.3240 C   0  0  0  0  0  0  0  0  0  0  0  0
    0.9301   -0.9307    0.0994 C   0  0  0  0  0  0  0  0  0  0  0  0
    2.3658   -0.5620    0.1086 C   0  0  0  0  0  0  0  0  0  0  0  0
    3.0334   -0.1953   -1.0451 C   0  0  0  0  0  0  0  0  0  0  0  0
    4.3652    0.1399   -0.9961 C   0  0  0  0  0  0  0  0  0  0  0  0
    5.0671    0.1232    0.1771 C   0  0  0  0  0  0  0  0  0  0  0  0
    6.4133    0.4769    0.1388 O   0  0  0  0  0  0  0  0  0  0  0  0
    4.4162   -0.2388    1.3289 C   0  0  0  0  0  0  0  0  0  0  0  0
    3.0790   -0.5803    1.3088 C   0  0  0  0  0  0  0  0  0  0  0  0
    5.7410   -1.2953   -0.6401 C   0  0  0  0  0  0  0  0  0  0  0  0
    4.4170   -0.3653   -0.9703 C   0  0  2  0  0  0  0  0  0  0  0  0
    4.6150    0.5840    0.3663 C   0  0  0  0  0  0  0  0  0  0  0  0
    5.9188    1.1892    0.2058 N   0  0  0  0  0  0  0  0  0  0  0  0
    7.0263    0.6357    0.6637 N   0  0  0  0  0  0  0  0  0  0  0  0
    8.0978    1.3943    0.3863 C   0  0  0  0  0  0  0  0  0  0  0  0
    7.6221    2.4571   -0.2696 N   0  0  0  0  0  0  0  0  0  0  0  0
    6.3175    2.2992   -0.3582 N   0  0  0  0  0  0  0  0  0  0  0  0
    3.4461   -1.3608   -0.2299 N   0  0  0  0  0  0  0  0  0  0  0  0
    2.0781   -0.9530   -0.2470 C   0  0  0  0  0  0  0  0  0  0  0  0
    1.6458    0.1641   -0.8311 N   0  0  0  0  0  0  0  0  0  0  0  0
    0.3272    0.4329   -0.7748 C   0  0  0  0  0  0  0  0  0  0  0  0
   -0.5688   -0.4042   -0.1394 C   0  0  0  0  0  0  0  0  0  0  0  0
   -1.9133   -0.1657   -0.0612 C   0  0  0  0  0  0  0  0  0  0  0  0
   -2.7469   -1.0519    0.5929 C   0  0  0  0  0  0  0  0  0  0  0  0
   -4.1197   -0.8222    0.6808 O   0  0  0  0  0  0  0  0  0  0  0  0
   -4.7185    0.2937    0.1244 C   0  0  0  0  0  0  0  0  0  0  0  0
   -5.4155    1.1944    0.9321 C   0  0  0  0  0  0  0  0  0  0  0  0
   -6.0236    2.3156    0.4114 C   0  0  0  0  0  0  0  0  0  0  0  0
   -5.9292    2.5404   -0.9653 C   0  0  0  0  0  0  0  0  0  0  0  0
   -6.5368    3.6458   -1.4315 F   0  0  0  0  0  0  0  0  0  0  0  0
   -5.2394    1.6404   -1.7332 C   0  0  0  0  0  0  0  0  0  0  0  0
   -4.6238    0.5143   -1.2390 C   0  0  0  0  0  0  0  0  0  0  0  0
   -3.9685   -0.3128   -2.0700 F   0  0  0  0  0  0  0  0  0  0  0  0
   -2.2555   -2.1975    1.1841 C   0  0  0  0  0  0  0  0  0  0  0  0
   -3.0065   -3.0099    1.7816 O   0  0  0  0  0  0  0  0  0  0  0  0
   -0.9318   -2.4086    1.0932 N   0  0  0  0  0  0  0  0  0  0  0  0
   -0.3919   -3.6184    1.7142 C   0  0  0  0  0  0  0  0  0  0  0  0
   -0.0968   -1.5603    0.4611 C   0  0  0  0  0  0  0  0  0  0  0  0
    1.2338   -1.7751    0.3713 N   0  0  0  0  0  0  0  0  0  0  0  0
  1  2  1  0
  2  3  1  0
  3  4  1  1
  3  5  1  0
  5  6  1  0
  6  7  1  0
  7  8  2  0
  7  9  1  0
  9 10  1  0
 10 11  1  0
 11 12  2  0
 12 13  1  0
 13 14  2  0
 14 15  1  0
 14 16  1  0
 16 17  2  0
 19 18  1  1
 19 20  1  0
 20 21  1  0
 21 22  1  0
 22 23  2  0
 23 24  1  0
 24 25  2  0
 19 26  1  0
 26 27  1  0
 27 28  2  0
 28 29  1  0
 29 30  2  0
 30 31  1  0
 31 32  2  0
 32 33  1  0
 33 34  1  0
 34 35  2  0
 35 36  1  0
 36 37  2  0
 37 38  1  0
 37 39  1  0
 39 40  2  0
 40 41  1  0
 32 42  1  0
 42 43  2  0
 42 44  1  0
 44 45  1  0
 44 46  1  0
 46 47  2  0
 17 11  1  0
 25 21  1  0
 47 27  1  0
 46 30  1  0
 40 34  1  0
M  END

