
     RDKit          3D

 16 15  0  0  0  0  0  0  0  0999 V2000
   -5.0011   -0.5282   -2.2538 N   0  0  0  0  0  0  0  0  0  0  0  0
   -4.2440    0.6352   -1.8820 C   0  0  0  0  0  0  0  0  0  0  0  0
   -4.6541    1.8252   -2.1764 N   0  0  0  0  0  4  0  0  0  0  0  0
   -3.0144    0.5292   -1.1763 N   0  0  0  0  0  0  0  0  0  0  0  0
   -2.2804    1.7280   -0.8195 C   0  0  0  0  0  0  0  0  0  0  0  0
   -1.0241    1.3154   -0.0829 C   0  0  0  0  0  0  0  0  0  0  0  0
   -1.3946    0.5457    1.1678 C   0  0  0  0  0  0  0  0  0  0  0  0
   -0.1813    0.1202    1.9236 C   0  0  0  0  0  0  0  0  0  0  0  0
    0.7069   -0.7650    1.1084 C   0  0  0  0  0  0  0  0  0  0  0  0
    0.3418   -1.0312   -0.0592 O   0  0  0  0  0  0  0  0  0  0  0  0
    1.9096   -1.2633    1.6749 N   0  0  0  0  0  0  0  0  0  0  0  0
    2.7651   -2.1200    0.8800 C   0  0  0  0  0  0  0  0  0  0  0  0
    3.2519   -1.4407   -0.3757 C   0  0  0  0  0  0  0  0  0  0  0  0
    4.0348   -0.2195   -0.0777 C   0  0  0  0  0  0  0  0  0  0  0  0
    4.5801    0.5623   -1.1069 N   0  0  0  0  0  0  0  0  0  0  0  0
    4.2039    0.1067    1.1131 O   0  0  0  0  0  0  0  0  0  0  0  0
  1  2  1  0
  2  3  2  0
  2  4  1  0
  4  5  1  0
  5  6  1  0
  6  7  1  0
  7  8  1  0
  8  9  1  0
  9 10  2  0
  9 11  1  0
 11 12  1  0
 12 13  1  0
 13 14  1  0
 14 15  1  0
 14 16  2  0
M  CHG  1   3   1
M  END

