
     RDKit          3D

 42 44  0  0  0  0  0  0  0  0999 V2000
    4.6306    0.1991   -0.8867 C   0  0  0  0  0  0  0  0  0  0  0  0
    3.2723    0.0271   -0.2441 C   0  0  0  0  0  0  0  0  0  0  0  0
    2.7873   -1.3656   -0.3492 C   0  0  0  0  0  0  0  0  0  0  0  0
    2.3515    1.0878   -0.6630 C   0  0  0  0  0  0  0  0  0  0  0  0
    1.0560    1.0012   -0.1070 N   0  0  0  0  0  0  0  0  0  0  0  0
    0.0939   -0.0172   -0.2866 C   0  0  0  0  0  0  0  0  0  0  0  0
    0.2962   -0.9922   -1.0021 O   0  0  0  0  0  0  0  0  0  0  0  0
   -1.1867    0.1606    0.4505 C   0  0  0  0  0  0  0  0  0  0  0  0
   -2.0963   -0.9678    0.0562 C   0  0  0  0  0  0  0  0  0  0  0  0
   -3.3590   -0.8144    0.8034 C   0  0  0  0  0  0  0  0  0  0  0  0
   -4.2076    0.2426    0.5427 O   0  0  0  0  0  1  0  0  0  0  0  0
   -3.6381   -1.6762    1.6859 O   0  0  0  0  0  0  0  0  0  0  0  0
   -4.1924    1.3302    1.7205 C   0  0  0  0  0  0  0  0  0  0  0  0
   -4.9793    1.8338    0.3518 C   0  0  2  0  0  0  0  0  0  0  0  0
   -4.4788    0.5604   -0.5761 C   0  0  0  0  0  0  0  0  0  0  0  0
   -4.9987   -0.6136    0.0782 N   0  0  0  0  0  0  0  0  0  0  0  0
   -4.3384   -1.2730    1.0115 N   0  0  0  0  0  0  0  0  0  0  0  0
   -5.0660   -2.3227    1.4404 C   0  0  0  0  0  0  0  0  0  0  0  0
   -6.2049   -2.2932    0.7395 N   0  0  0  0  0  0  0  0  0  0  0  0
   -6.1378   -1.2518   -0.0750 N   0  0  0  0  0  0  0  0  0  0  0  0
   -3.8461    2.8049   -0.0938 N   0  0  0  0  0  0  0  0  0  0  0  0
   -2.5615    2.3521   -0.3509 C   0  0  0  0  0  0  0  0  0  0  0  0
   -1.6577    3.3059   -0.7330 N   0  0  0  0  0  0  0  0  0  0  0  0
   -0.3927    3.0703   -1.0215 C   0  0  0  0  0  0  0  0  0  0  0  0
    0.0881    1.7700   -0.9413 C   0  0  0  0  0  0  0  0  0  0  0  0
    1.3778    1.4881   -1.2287 C   0  0  0  0  0  0  0  0  0  0  0  0
    1.8584    0.1440   -1.1417 C   0  0  0  0  0  0  0  0  0  0  0  0
    3.1355   -0.0561   -1.4416 O   0  0  0  0  0  0  0  0  0  0  0  0
    4.2491   -0.4472   -0.8245 C   0  0  0  0  0  0  0  0  0  0  0  0
    5.2699    0.5674   -0.6987 C   0  0  0  0  0  0  0  0  0  0  0  0
    6.4485    0.3052   -0.0976 C   0  0  0  0  0  0  0  0  0  0  0  0
    6.7481   -0.9325    0.4275 C   0  0  0  0  0  0  0  0  0  0  0  0
    7.9567   -1.1617    1.0322 F   0  0  0  0  0  0  0  0  0  0  0  0
    5.8006   -1.9130    0.3221 C   0  0  0  0  0  0  0  0  0  0  0  0
    4.5652   -1.6658   -0.3000 C   0  0  0  0  0  0  0  0  0  0  0  0
    3.7505   -2.7672   -0.3598 F   0  0  0  0  0  0  0  0  0  0  0  0
    0.9371   -0.7575   -0.7650 C   0  0  0  0  0  0  0  0  0  0  0  0
    1.1985   -1.9968   -0.6441 O   0  0  0  0  0  0  0  0  0  0  0  0
   -0.3563   -0.4624   -0.4780 N   0  0  0  0  0  0  0  0  0  0  0  0
   -1.2621   -1.5206   -0.0806 C   0  0  0  0  0  0  0  0  0  0  0  0
   -0.8131    0.7902   -0.5559 C   0  0  0  0  0  0  0  0  0  0  0  0
   -2.0983    1.1125   -0.2757 N   0  0  0  0  0  0  0  0  0  0  0  0
  1  2  1  0
  2  3  1  0
  2  4  1  0
  4  5  1  0
  5  6  1  0
  6  7  2  0
  6  8  1  0
  8  9  1  0
  9 10  1  0
 10 11  1  0
 10 12  2  0
 14 13  1  1
 14 15  1  0
 15 16  1  0
 16 17  1  0
 17 18  2  0
 18 19  1  0
 19 20  2  0
 14 21  1  0
 21 22  1  0
 22 23  2  0
 23 24  1  0
 24 25  2  0
 25 26  1  0
 26 27  2  0
 27 28  1  0
 28 29  1  0
 29 30  2  0
 30 31  1  0
 31 32  2  0
 32 33  1  0
 32 34  1  0
 34 35  2  0
 35 36  1  0
 27 37  1  0
 37 38  2  0
 37 39  1  0
 39 40  1  0
 39 41  1  0
 41 42  2  0
 20 16  1  0
 42 22  1  0
 41 25  1  0
 35 29  1  0
M  RAD  1  11   2
M  END

