
     RDKit          3D

 14 13  0  0  0  0  0  0  0  0999 V2000
    3.8526    1.3146    0.3015 C   0  0  0  0  0  0  0  0  0  0  0  0
    2.9572    0.8606   -0.8533 C   0  0  0  0  0  0  0  0  0  0  0  0
    3.5785    1.4282   -2.1129 C   0  0  0  0  0  0  0  0  0  0  0  0
    2.9963   -0.6489   -0.8564 C   0  0  0  0  0  0  0  0  0  0  0  0
    2.4931   -1.1980    0.4333 C   0  0  0  0  0  0  0  0  0  0  0  0
    1.1330   -0.8248    0.7301 N   0  0  0  0  0  0  0  0  0  0  0  0
    0.0224   -1.1370   -0.0769 C   0  0  0  0  0  0  0  0  0  0  0  0
    0.1961   -1.7848   -1.1353 O   0  0  0  0  0  0  0  0  0  0  0  0
   -1.3548   -0.7215    0.2876 C   0  0  0  0  0  0  0  0  0  0  0  0
   -2.3540   -1.1903   -0.7578 C   0  0  0  0  0  0  0  0  0  0  0  0
   -3.7579   -0.7792   -0.4076 C   0  0  0  0  0  0  0  0  0  0  0  0
   -3.8568    0.7291   -0.3124 C   0  0  0  0  0  0  0  0  0  0  0  0
   -2.9073    1.2542    0.7703 C   0  0  0  0  0  0  0  0  0  0  0  0
   -2.9982    2.6977    0.8653 N   0  0  0  0  0  4  0  0  0  0  0  0
  1  2  1  0
  2  3  1  0
  2  4  1  0
  4  5  1  0
  5  6  1  0
  6  7  1  0
  7  8  2  0
  7  9  1  0
  9 10  1  0
 10 11  1  0
 11 12  1  0
 12 13  1  0
 13 14  1  0
M  CHG  1  14   1
M  END

