
     RDKit          3D

 10  9  0  0  0  0  0  0  0  0999 V2000
    3.8653    1.0256    0.5819 C   0  0  0  0  0  0  0  0  0  0  0  0
    2.4093    1.1938    0.8845 C   0  0  0  0  0  0  0  0  0  0  0  0
    1.6671    0.0039    0.3910 C   0  0  0  0  0  0  0  0  0  0  0  0
    2.2579   -0.9437   -0.1784 O   0  0  0  0  0  0  0  0  0  0  0  0
    0.2569   -0.1358    0.5304 N   0  0  0  0  0  0  0  0  0  0  0  0
   -0.4548   -1.3077    0.0415 C   0  0  0  0  0  0  0  0  0  0  0  0
   -1.9104   -1.1273    0.3502 C   0  0  0  0  0  0  0  0  0  0  0  0
   -2.4784    0.0852   -0.2982 C   0  0  0  0  0  0  0  0  0  0  0  0
   -3.8502    0.3749   -0.0879 N   0  0  0  0  0  0  0  0  0  0  0  0
   -1.7626    0.8312   -1.0119 O   0  0  0  0  0  0  0  0  0  0  0  0
  1  2  1  0
  2  3  1  0
  3  4  2  0
  3  5  1  0
  5  6  1  0
  6  7  1  0
  7  8  1  0
  8  9  1  0
  8 10  2  0
M  END

