
     RDKit          3D

 12 11  0  0  0  0  0  0  0  0999 V2000
   -4.7188   -0.9411   -0.8573 C   0  0  0  0  0  0  0  0  0  0  0  0
   -3.6933    0.1555   -0.6599 C   0  0  0  0  0  0  0  0  0  0  0  0
   -4.0767    1.0282    0.5061 C   0  0  0  0  0  0  0  0  0  0  0  0
   -2.3534   -0.4641   -0.5458 C   0  0  0  0  0  0  0  0  0  0  0  0
   -1.2289    0.5111   -0.3453 C   0  0  0  0  0  0  0  0  0  0  0  0
    0.0655   -0.2122   -0.2438 C   0  0  0  0  0  0  0  0  0  0  0  0
    0.0786   -1.4687   -0.3303 O   0  0  0  0  0  0  0  0  0  0  0  0
    1.3079    0.4330   -0.0526 N   0  0  0  0  0  0  0  0  0  0  0  0
    2.5467   -0.3599    0.0375 C   0  0  0  0  0  0  0  0  0  0  0  0
    3.7113    0.7959    0.2554 C   0  0  1  0  0  0  0  0  0  0  0  0
    3.5249    0.7671    1.9215 C   0  0  0  0  0  0  0  0  0  0  0  0
    4.8363   -0.2472    0.3146 O   0  0  0  0  0  0  0  0  0  0  0  0
  1  2  1  0
  2  3  1  0
  2  4  1  0
  4  5  1  0
  5  6  1  0
  6  7  2  0
  6  8  1  0
  8  9  1  0
  9 10  1  0
 10 11  1  1
 10 12  1  0
M  END

