
     RDKit          3D

 41 43  0  0  0  0  0  0  0  0999 V2000
   -3.6787    0.2314   -1.5064 C   0  0  0  0  0  0  0  0  0  0  0  0
   -2.7300   -0.4727   -0.5991 C   0  0  0  0  0  0  0  0  0  0  0  0
   -2.5191    0.4731    0.7166 C   0  0  2  0  0  0  0  0  0  0  0  0
   -1.9258    1.7632   -0.0854 C   0  0  0  0  0  0  0  0  0  0  0  0
   -1.0632   -0.1498    1.0920 C   0  0  0  0  0  0  0  0  0  0  0  0
   -0.1932    0.0774   -0.0252 N   0  0  0  0  0  0  0  0  0  0  0  0
    1.1239   -0.3363   -0.0210 C   0  0  0  0  0  0  0  0  0  0  0  0
    1.5306   -0.9298    1.0226 O   0  0  0  0  0  0  0  0  0  0  0  0
    2.0429   -0.1008   -1.1908 C   0  0  0  0  0  0  0  0  0  0  0  0
    3.3863   -0.6885   -0.8159 C   0  0  0  0  0  0  0  0  0  0  0  0
    4.0262    0.1328    0.6772 S   0  0  0  0  0  0  0  0  0  0  0  0
    4.1871    1.0412    0.6622 C   0  0  0  0  0  0  0  0  0  0  0  0
    4.8190   -0.4650    0.3804 C   0  0  2  0  0  0  0  0  0  0  0  0
    5.8085    0.0293   -0.8573 C   0  0  0  0  0  0  0  0  0  0  0  0
    6.6837    1.0038   -0.3075 N   0  0  0  0  0  0  0  0  0  0  0  0
    6.3610    2.2898   -0.3107 N   0  0  0  0  0  0  0  0  0  0  0  0
    7.3229    3.0303    0.2535 C   0  0  0  0  0  0  0  0  0  0  0  0
    8.2767    2.1519    0.6175 N   0  0  0  0  0  0  0  0  0  0  0  0
    7.8663    0.9407    0.2682 N   0  0  0  0  0  0  0  0  0  0  0  0
    3.6619   -0.8635   -0.6249 N   0  0  0  0  0  0  0  0  0  0  0  0
    2.3694   -0.8367   -0.0400 C   0  0  0  0  0  0  0  0  0  0  0  0
    2.1347   -0.5069    1.2425 N   0  0  0  0  0  0  0  0  0  0  0  0
    0.8714   -0.5014    1.7393 C   0  0  0  0  0  0  0  0  0  0  0  0
   -0.2047   -0.8340    0.9419 C   0  0  0  0  0  0  0  0  0  0  0  0
   -1.5144   -0.8325    1.4416 C   0  0  0  0  0  0  0  0  0  0  0  0
   -2.5243   -1.1733    0.5895 C   0  0  0  0  0  0  0  0  0  0  0  0
   -3.8188   -1.1765    1.0667 O   0  0  0  0  0  0  0  0  0  0  0  0
   -4.8241   -0.3818    0.5442 C   0  0  0  0  0  0  0  0  0  0  0  0
   -5.9528   -0.9821    0.0121 C   0  0  0  0  0  0  0  0  0  0  0  0
   -6.9913   -0.2576   -0.5241 C   0  0  0  0  0  0  0  0  0  0  0  0
   -6.8782    1.1236   -0.5189 C   0  0  0  0  0  0  0  0  0  0  0  0
   -7.9097    1.8599   -1.0521 F   0  0  0  0  0  0  0  0  0  0  0  0
   -5.7679    1.7200    0.0043 C   0  0  0  0  0  0  0  0  0  0  0  0
   -4.7241    0.9923    0.5432 C   0  0  0  0  0  0  0  0  0  0  0  0
   -3.6339    1.6101    1.0558 F   0  0  0  0  0  0  0  0  0  0  0  0
   -2.2285   -1.5019   -0.7112 C   0  0  0  0  0  0  0  0  0  0  0  0
   -3.1608   -1.8158   -1.4953 O   0  0  0  0  0  0  0  0  0  0  0  0
   -0.9662   -1.4972   -1.1709 N   0  0  0  0  0  0  0  0  0  0  0  0
   -0.6680   -1.8429   -2.5347 C   0  0  0  0  0  0  0  0  0  0  0  0
    0.0621   -1.1685   -0.3695 C   0  0  0  0  0  0  0  0  0  0  0  0
    1.3430   -1.1552   -0.8048 N   0  0  0  0  0  0  0  0  0  0  0  0
  1  2  1  0
  2  3  1  0
  3  4  1  6
  3  5  1  0
  5  6  1  0
  6  7  1  0
  7  8  2  0
  7  9  1  0
  9 10  1  0
 10 11  1  0
 13 12  1  1
 13 14  1  0
 14 15  1  0
 15 16  1  0
 16 17  2  0
 17 18  1  0
 18 19  2  0
 13 20  1  0
 20 21  1  0
 21 22  2  0
 22 23  1  0
 23 24  2  0
 24 25  1  0
 25 26  2  0
 26 27  1  0
 27 28  1  0
 28 29  2  0
 29 30  1  0
 30 31  2  0
 31 32  1  0
 31 33  1  0
 33 34  2  0
 34 35  1  0
 26 36  1  0
 36 37  2  0
 36 38  1  0
 38 39  1  0
 38 40  1  0
 40 41  2  0
 19 15  1  0
 41 21  1  0
 40 24  1  0
 34 28  1  0
M  END

