
     RDKit          3D

 15 15  0  0  0  0  0  0  0  0999 V2000
    4.0830   -1.0565   -1.0754 O   0  0  0  0  0  1  0  0  0  0  0  0
    3.8390    0.2476   -0.7529 C   0  0  0  0  0  0  0  0  0  0  0  0
    3.8028    1.1319   -1.6349 O   0  0  0  0  0  0  0  0  0  0  0  0
    3.6143    0.6214    0.6605 C   0  0  0  0  0  0  0  0  0  0  0  0
    2.1823    0.8810    1.0011 C   0  0  0  0  0  0  0  0  0  0  0  0
    1.3192   -0.3001    0.7630 C   0  0  0  0  0  0  0  0  0  0  0  0
    1.8916   -1.3462    0.3278 O   0  0  0  0  0  0  0  0  0  0  0  0
   -0.0568   -0.3584    0.9773 N   0  0  0  0  0  0  0  0  0  0  0  0
   -0.8119   -1.5760    0.7124 C   0  0  0  0  0  0  0  0  0  0  0  0
   -2.2648   -1.4523    0.9983 C   0  0  0  0  0  0  0  0  0  0  0  0
   -2.9459   -0.4006    0.2063 C   0  0  0  0  0  0  0  0  0  0  0  0
   -2.4351    0.4574   -0.7310 C   0  0  0  0  0  0  0  0  0  0  0  0
   -3.4120    1.2447   -1.1920 N   0  0  0  0  0  0  0  0  0  0  0  0
   -4.5417    0.8987   -0.5608 C   0  0  0  0  0  0  0  0  0  0  0  0
   -4.2640   -0.1125    0.3003 N   0  0  0  0  0  0  0  0  0  0  0  0
  1  2  1  0
  2  3  2  0
  2  4  1  0
  4  5  1  0
  5  6  1  0
  6  7  2  0
  6  8  1  0
  8  9  1  0
  9 10  1  0
 10 11  1  0
 11 12  2  0
 12 13  1  0
 13 14  1  0
 14 15  2  0
 15 11  1  0
M  RAD  1   1   2
M  END

