
     RDKit          3D

 14 13  0  0  0  0  0  0  0  0999 V2000
   -5.5007    0.2513   -1.7475 C   0  0  0  0  0  0  0  0  0  0  0  0
   -4.2210    0.3654   -0.9075 C   0  0  0  0  0  0  0  0  0  0  0  0
   -4.5607    1.0654    0.4139 C   0  0  0  0  0  0  0  0  0  0  0  0
   -3.7983   -1.0280   -0.5635 C   0  0  0  0  0  0  0  0  0  0  0  0
   -2.5636   -1.1146    0.2561 C   0  0  0  0  0  0  0  0  0  0  0  0
   -1.4047   -0.5266   -0.3932 N   0  0  0  0  0  0  0  0  0  0  0  0
   -0.1248   -0.4970    0.2035 C   0  0  0  0  0  0  0  0  0  0  0  0
    0.0068   -1.0040    1.3460 O   0  0  0  0  0  0  0  0  0  0  0  0
    1.0676    0.1070   -0.4627 C   0  0  0  0  0  0  0  0  0  0  0  0
    2.2959    0.0071    0.3814 C   0  0  0  0  0  0  0  0  0  0  0  0
    3.4420    0.6361   -0.3616 C   0  0  0  0  0  0  0  0  0  0  0  0
    4.7094    0.5791    0.4117 C   0  0  0  0  0  0  0  0  0  0  0  0
    5.8683    1.1147   -0.1270 O   0  0  0  0  0  1  0  0  0  0  0  0
    4.7840    0.0600    1.5506 O   0  0  0  0  0  0  0  0  0  0  0  0
  1  2  1  0
  2  3  1  0
  2  4  1  0
  4  5  1  0
  5  6  1  0
  6  7  1  0
  7  8  2  0
  7  9  1  0
  9 10  1  0
 10 11  1  0
 11 12  1  0
 12 13  1  0
 12 14  2  0
M  RAD  1  13   2
M  END

