
     RDKit          3D

 42 44  0  0  0  0  0  0  0  0999 V2000
    3.8416    1.5147   -1.2666 C   0  0  0  0  0  0  0  0  0  0  0  0
    4.0774    2.2371    0.2066 C   0  0  2  0  0  0  0  0  0  0  0  0
    5.7216    2.1389    0.1244 C   0  0  0  0  0  0  0  0  0  0  0  0
    6.0903    0.7822    0.0102 N   0  0  0  0  0  0  0  0  0  0  0  0
    6.3514   -0.0812    0.9511 N   0  0  0  0  0  0  0  0  0  0  0  0
    6.6641   -1.2744    0.4077 C   0  0  0  0  0  0  0  0  0  0  0  0
    6.5877   -1.1211   -0.9100 N   0  0  0  0  0  0  0  0  0  0  0  0
    6.2372    0.1351   -1.1516 N   0  0  0  0  0  0  0  0  0  0  0  0
    3.9017    0.8866    1.0087 N   0  0  0  0  0  0  0  0  0  0  0  0
    2.6205    0.3052    0.7947 C   0  0  0  0  0  0  0  0  0  0  0  0
    2.3799   -0.8469    1.4369 N   0  0  0  0  0  0  0  0  0  0  0  0
    1.1824   -1.4830    1.2977 C   0  0  0  0  0  0  0  0  0  0  0  0
    0.1994   -0.9524    0.4946 C   0  0  0  0  0  0  0  0  0  0  0  0
   -1.0401   -1.5802    0.3304 C   0  0  0  0  0  0  0  0  0  0  0  0
   -1.9944   -1.0176   -0.4804 C   0  0  0  0  0  0  0  0  0  0  0  0
   -3.2513   -1.5567   -0.7107 O   0  0  0  0  0  0  0  0  0  0  0  0
   -4.4305   -0.8940   -0.4026 C   0  0  0  0  0  0  0  0  0  0  0  0
   -4.3552    0.3725    0.1653 C   0  0  0  0  0  0  0  0  0  0  0  0
   -5.4895    1.0586    0.4835 C   0  0  0  0  0  0  0  0  0  0  0  0
   -6.7181    0.4742    0.2324 C   0  0  0  0  0  0  0  0  0  0  0  0
   -7.8147    1.1775    0.5580 F   0  0  0  0  0  0  0  0  0  0  0  0
   -6.7772   -0.8006   -0.3393 C   0  0  0  0  0  0  0  0  0  0  0  0
   -5.6244   -1.4899   -0.6592 C   0  0  0  0  0  0  0  0  0  0  0  0
   -5.6393   -2.7203   -1.2114 F   0  0  0  0  0  0  0  0  0  0  0  0
   -1.6864    0.1665   -1.1122 C   0  0  0  0  0  0  0  0  0  0  0  0
   -2.5134    0.7267   -1.8623 O   0  0  0  0  0  0  0  0  0  0  0  0
   -0.4869    0.7772   -0.9554 N   0  0  0  0  0  0  0  0  0  0  0  0
   -0.1584    2.0259   -1.6200 C   0  0  0  0  0  0  0  0  0  0  0  0
    0.4605    0.2339   -0.1605 C   0  0  0  0  0  0  0  0  0  0  0  0
    1.6641    0.8056    0.0238 N   0  0  0  0  0  0  0  0  0  0  0  0
   -4.3970   -0.3398    0.4965 N   0  0  0  0  0  4  0  0  0  0  0  0
   -3.4206    0.0419   -0.5041 C   0  0  0  0  0  0  0  0  0  0  0  0
   -2.1441   -0.8000   -0.3821 C   0  0  0  0  0  0  0  0  0  0  0  0
   -1.2219   -0.2847   -1.4924 C   0  0  0  0  0  0  0  0  0  0  0  0
   -1.0069    1.1972   -1.1792 C   0  0  0  0  0  0  0  0  0  0  0  0
   -0.3685    1.2509    0.1905 C   0  0  0  0  0  0  0  0  0  0  0  0
    0.9481    0.5017    0.1575 C   0  0  0  0  0  0  0  0  0  0  0  0
    1.3168   -0.0266   -0.9098 O   0  0  0  0  0  0  0  0  0  0  0  0
    1.7528    0.3935    1.2989 N   0  0  0  0  0  0  0  0  0  0  0  0
    2.9825   -0.2663    1.4362 C   0  0  0  0  0  0  0  0  0  0  0  0
    3.0128   -1.7022    1.2317 C   0  0  0  0  0  0  0  0  0  0  0  0
    2.5460   -2.3810   -0.3437 S   0  0  0  0  0  0  0  0  0  0  0  0
  2  1  1  6
  2  3  1  0
  3  4  1  0
  4  5  1  0
  5  6  2  0
  6  7  1  0
  7  8  2  0
  2  9  1  0
  9 10  1  0
 10 11  2  0
 11 12  1  0
 12 13  2  0
 13 14  1  0
 14 15  2  0
 15 16  1  0
 16 17  1  0
 17 18  2  0
 18 19  1  0
 19 20  2  0
 20 21  1  0
 20 22  1  0
 22 23  2  0
 23 24  1  0
 15 25  1  0
 25 26  2  0
 25 27  1  0
 27 28  1  0
 27 29  1  0
 29 30  2  0
 31 32  1  0
 32 33  1  0
 33 34  1  0
 34 35  1  0
 35 36  1  0
 36 37  1  0
 37 38  2  0
 37 39  1  0
 39 40  1  0
 40 41  1  0
 41 42  1  0
  8  4  1  0
 30 10  1  0
 29 13  1  0
 23 17  1  0
M  CHG  1  31   1
M  END

