
     RDKit          3D

 19 20  0  0  0  0  0  0  0  0999 V2000
   -5.4648    1.6090   -0.8010 N   0  0  0  0  0  0  0  0  0  0  0  0
   -4.4248    0.8891   -0.2058 C   0  0  0  0  0  0  0  0  0  0  0  0
   -3.2203    1.3151   -0.2664 O   0  0  0  0  0  0  0  0  0  0  0  0
   -4.7004   -0.3895    0.5100 C   0  0  0  0  0  0  0  0  0  0  0  0
   -3.3635   -0.9251    1.0352 C   0  0  0  0  0  0  0  0  0  0  0  0
   -2.4551   -1.1731   -0.1417 C   0  0  0  0  0  0  0  0  0  0  0  0
   -2.9309   -1.1312   -1.3073 O   0  0  0  0  0  0  0  0  0  0  0  0
   -1.0764   -1.4527   -0.0294 N   0  0  0  0  0  0  0  0  0  0  0  0
   -0.2619   -1.6925   -1.2417 C   0  0  0  0  0  0  0  0  0  0  0  0
    1.1691   -1.8964   -0.7697 C   0  0  0  0  0  0  0  0  0  0  0  0
    1.5238   -0.6006   -0.0836 C   0  0  0  0  0  0  0  0  0  0  0  0
    0.6177    0.3065    0.4467 C   0  0  0  0  0  0  0  0  0  0  0  0
    1.3170    1.3307    0.9563 N   0  0  0  0  0  0  0  0  0  0  0  0
    2.6290    1.1241    0.7776 C   0  0  0  0  0  0  0  0  0  0  0  0
    3.7562    1.8826    1.1273 C   0  0  0  0  0  0  0  0  0  0  0  0
    4.9884    1.3375    0.7777 C   0  0  0  0  0  0  0  0  0  0  0  0
    5.1177    0.1456    0.1377 C   0  0  0  0  0  0  0  0  0  0  0  0
    4.0120   -0.6031   -0.2076 C   0  0  0  0  0  0  0  0  0  0  0  0
    2.7673   -0.0760    0.1316 C   0  0  0  0  0  0  0  0  0  0  0  0
  1  2  1  0
  2  3  2  0
  2  4  1  0
  4  5  1  0
  5  6  1  0
  6  7  2  0
  6  8  1  0
  8  9  1  0
  9 10  1  0
 10 11  1  0
 11 12  2  0
 12 13  1  0
 13 14  1  0
 14 15  2  0
 15 16  1  0
 16 17  2  0
 17 18  1  0
 18 19  2  0
 19 11  1  0
 19 14  1  0
M  END

