
     RDKit          3D

 17 17  0  0  0  0  0  0  0  0999 V2000
    4.6716    2.2962   -2.2039 C   0  0  0  0  0  0  0  0  0  0  0  0
    4.4940    0.9824   -1.4545 C   0  0  0  0  0  0  0  0  0  0  0  0
    4.1354    1.4914    0.0615 C   0  0  2  0  0  0  0  0  0  0  0  0
    3.9920   -0.0173    0.6661 C   0  0  0  0  0  0  0  0  0  0  0  0
    2.5401    1.6898   -0.1780 C   0  0  0  0  0  0  0  0  0  0  0  0
    1.9648    0.4752   -0.5611 N   0  0  0  0  0  0  0  0  0  0  0  0
    0.6448    0.1769   -0.8659 C   0  0  0  0  0  0  0  0  0  0  0  0
   -0.1601    1.1301   -0.7899 O   0  0  0  0  0  0  0  0  0  0  0  0
    0.2671   -1.1837   -1.2472 C   0  0  0  0  0  0  0  0  0  0  0  0
   -1.1948   -1.3979   -1.5218 C   0  0  0  0  0  0  0  0  0  0  0  0
   -2.0299   -1.1024   -0.3305 C   0  0  0  0  0  0  0  0  0  0  0  0
   -2.5830    0.1280   -0.0534 C   0  0  0  0  0  0  0  0  0  0  0  0
   -3.3513    0.3506    1.0670 C   0  0  0  0  0  0  0  0  0  0  0  0
   -3.6187   -0.6387    1.9847 C   0  0  0  0  0  0  0  0  0  0  0  0
   -4.4013   -0.4040    3.1219 O   0  0  0  0  0  0  0  0  0  0  0  0
   -3.0703   -1.8729    1.7170 C   0  0  0  0  0  0  0  0  0  0  0  0
   -2.3003   -2.1038    0.5980 C   0  0  0  0  0  0  0  0  0  0  0  0
  1  2  1  0
  2  3  1  0
  3  4  1  1
  3  5  1  0
  5  6  1  0
  6  7  1  0
  7  8  2  0
  7  9  1  0
  9 10  1  0
 10 11  1  0
 11 12  2  0
 12 13  1  0
 13 14  2  0
 14 15  1  0
 14 16  1  0
 16 17  2  0
 17 11  1  0
M  END

