
     RDKit          3D

 14 14  0  0  0  0  0  0  0  0999 V2000
    3.3497   -2.0618   -0.2793 O   0  0  0  0  0  1  0  0  0  0  0  0
    3.1688   -0.7296    0.0721 C   0  0  0  0  0  0  0  0  0  0  0  0
    3.4201    0.1905   -0.7508 O   0  0  0  0  0  0  0  0  0  0  0  0
    2.6742   -0.4378    1.4275 C   0  0  0  0  0  0  0  0  0  0  0  0
    2.5332    1.0479    1.6124 C   0  0  0  0  0  0  0  0  0  0  0  0
    1.5619    1.5311    0.5524 C   0  0  0  0  0  0  0  0  0  0  0  0
    0.3117    0.7845    0.7789 N   0  0  0  0  0  0  0  0  0  0  0  0
   -0.8286    1.0340   -0.0429 C   0  0  0  0  0  0  0  0  0  0  0  0
   -0.8720    1.8304   -0.9361 O   0  0  0  0  0  0  0  0  0  0  0  0
   -2.1017    0.1193    0.3507 C   0  0  2  0  0  0  0  0  0  0  0  0
   -2.1311   -0.6892   -1.1375 C   0  0  0  0  0  0  0  0  0  0  0  0
   -3.6513   -0.9379   -1.1260 C   0  0  0  0  0  0  0  0  0  0  0  0
   -4.2430    0.2016   -0.3165 C   0  0  0  0  0  0  0  0  0  0  0  0
   -3.1919    1.1804   -0.2048 N   0  0  0  0  0  0  0  0  0  0  0  0
  1  2  1  0
  2  3  2  0
  2  4  1  0
  4  5  1  0
  5  6  1  0
  6  7  1  0
  7  8  1  0
  8  9  2  0
 10  8  1  6
 10 11  1  0
 11 12  1  0
 12 13  1  0
 13 14  1  0
 14 10  1  0
M  RAD  1   1   2
M  END

