
     RDKit          3D

 46 49  0  0  0  0  0  0  0  0999 V2000
   -4.6426   -1.6694    1.2222 C   0  0  0  0  0  0  0  0  0  0  0  0
   -4.9322   -0.2114    1.9352 C   0  0  2  0  0  0  0  0  0  0  0  0
   -4.1267    0.6414    0.7826 C   0  0  0  0  0  0  0  0  0  0  0  0
   -4.8624    0.3267   -0.4374 N   0  0  0  0  0  0  0  0  0  0  0  0
   -5.8806    0.9863   -0.9205 N   0  0  0  0  0  0  0  0  0  0  0  0
   -6.2493    0.3492   -2.0487 C   0  0  0  0  0  0  0  0  0  0  0  0
   -5.4298   -0.7014   -2.2255 N   0  0  0  0  0  0  0  0  0  0  0  0
   -4.5763   -0.6985   -1.2156 N   0  0  0  0  0  0  0  0  0  0  0  0
   -3.7533   -0.2794    2.9365 N   0  0  0  0  0  0  0  0  0  0  0  0
   -2.4346   -0.3937    2.4999 C   0  0  0  0  0  0  0  0  0  0  0  0
   -1.4656   -0.4486    3.4469 N   0  0  0  0  0  0  0  0  0  0  0  0
   -0.1600   -0.5564    3.1521 C   0  0  0  0  0  0  0  0  0  0  0  0
    0.2812   -0.6189    1.8367 C   0  0  0  0  0  0  0  0  0  0  0  0
    1.5811   -0.7265    1.4860 C   0  0  0  0  0  0  0  0  0  0  0  0
    2.0147   -0.7890    0.1120 C   0  0  0  0  0  0  0  0  0  0  0  0
    3.3438   -0.8969   -0.0338 O   0  0  0  0  0  0  0  0  0  0  0  0
    4.2796   -0.1241   -0.5505 C   0  0  0  0  0  0  0  0  0  0  0  0
    5.2027    0.3955    0.3966 C   0  0  0  0  0  0  0  0  0  0  0  0
    6.2204    1.2019    0.0141 C   0  0  0  0  0  0  0  0  0  0  0  0
    6.4315    1.5688   -1.2832 C   0  0  0  0  0  0  0  0  0  0  0  0
    7.4663    2.3874   -1.6574 F   0  0  0  0  0  0  0  0  0  0  0  0
    5.5403    1.0651   -2.1907 C   0  0  0  0  0  0  0  0  0  0  0  0
    4.4736    0.2255   -1.8309 C   0  0  0  0  0  0  0  0  0  0  0  0
    3.7470   -0.1886   -2.8908 F   0  0  0  0  0  0  0  0  0  0  0  0
    0.9995   -0.7310   -0.7925 C   0  0  0  0  0  0  0  0  0  0  0  0
    1.2545   -0.7816   -2.0177 O   0  0  0  0  0  0  0  0  0  0  0  0
   -0.3011   -0.6218   -0.4004 N   0  0  0  0  0  0  0  0  0  0  0  0
   -1.3104   -0.5647   -1.4302 C   0  0  0  0  0  0  0  0  0  0  0  0
   -0.7065   -0.5629    0.8749 C   0  0  0  0  0  0  0  0  0  0  0  0
   -2.0048   -0.4544    1.2299 N   0  0  0  0  0  0  0  0  0  0  0  0
    3.1509    2.6753    0.2238 O   0  0  0  0  0  1  0  0  0  0  0  0
    3.9136    1.6250    0.7410 C   0  0  0  0  0  0  0  0  0  0  0  0
    5.1614    1.7143    0.6975 O   0  0  0  0  0  0  0  0  0  0  0  0
    3.3034    0.4107    1.3385 C   0  0  0  0  0  0  0  0  0  0  0  0
    1.8098    0.4560    1.3155 C   0  0  0  0  0  0  0  0  0  0  0  0
    1.2899    0.5648   -0.0915 C   0  0  0  0  0  0  0  0  0  0  0  0
    2.0577    0.6081   -1.0815 O   0  0  0  0  0  0  0  0  0  0  0  0
   -0.1010    0.6206   -0.3166 N   0  0  0  0  0  0  0  0  0  0  0  0
   -0.6721    0.7268   -1.6625 C   0  0  0  0  0  0  0  0  0  0  0  0
   -2.1735    0.7596   -1.4917 C   0  0  0  0  0  0  0  0  0  0  0  0
   -2.5824   -0.5190   -0.8116 C   0  0  0  0  0  0  0  0  0  0  0  0
   -2.6420   -0.5963    0.5644 C   0  0  0  0  0  0  0  0  0  0  0  0
   -3.0232   -1.7936    1.1367 C   0  0  0  0  0  0  0  0  0  0  0  0
   -3.3293   -2.8627    0.3367 C   0  0  0  0  0  0  0  0  0  0  0  0
   -3.2713   -2.7903   -1.0379 C   0  0  0  0  0  0  0  0  0  0  0  0
   -2.8920   -1.5993   -1.6118 C   0  0  0  0  0  0  0  0  0  0  0  0
  2  1  1  6
  2  3  1  0
  3  4  1  0
  4  5  1  0
  5  6  2  0
  6  7  1  0
  7  8  2  0
  2  9  1  0
  9 10  1  0
 10 11  2  0
 11 12  1  0
 12 13  2  0
 13 14  1  0
 14 15  2  0
 15 16  1  0
 16 17  1  0
 17 18  2  0
 18 19  1  0
 19 20  2  0
 20 21  1  0
 20 22  1  0
 22 23  2  0
 23 24  1  0
 15 25  1  0
 25 26  2  0
 25 27  1  0
 27 28  1  0
 27 29  1  0
 29 30  2  0
 31 32  1  0
 32 33  2  0
 32 34  1  0
 34 35  1  0
 35 36  1  0
 36 37  2  0
 36 38  1  0
 38 39  1  0
 39 40  1  0
 40 41  1  0
 41 42  2  0
 42 43  1  0
 43 44  2  0
 44 45  1  0
 45 46  2  0
  8  4  1  0
 30 10  1  0
 46 41  1  0
 29 13  1  0
 23 17  1  0
M  RAD  1  31   2
M  END

