
     RDKit          3D

 43 45  0  0  0  0  0  0  0  0999 V2000
    4.0300   -0.9398   -1.2766 C   0  0  0  0  0  0  0  0  0  0  0  0
    3.3921   -0.5498    0.0411 C   0  0  0  0  0  0  0  0  0  0  0  0
    3.3354    1.0838    0.0373 C   0  0  2  0  0  0  0  0  0  0  0  0
    2.6390    1.2165    1.4983 C   0  0  0  0  0  0  0  0  0  0  0  0
    1.9689    1.2063   -0.8157 C   0  0  0  0  0  0  0  0  0  0  0  0
    0.8828    0.5280   -0.1511 C   0  0  0  0  0  0  0  0  0  0  0  0
    1.0953   -0.1463    0.8828 O   0  0  0  0  0  0  0  0  0  0  0  0
   -0.4799    0.5540   -0.5818 N   0  0  0  0  0  0  0  0  0  0  0  0
   -1.5135   -0.1745    0.1713 C   0  0  0  0  0  0  0  0  0  0  0  0
   -2.8490    0.0205   -0.4942 C   0  0  0  0  0  0  0  0  0  0  0  0
   -3.8550   -0.7304    0.2990 C   0  0  0  0  0  0  0  0  0  0  0  0
   -4.7253   -0.0871    1.1605 O   0  0  0  0  0  1  0  0  0  0  0  0
   -3.9208   -1.9813    0.1879 O   0  0  0  0  0  0  0  0  0  0  0  0
   -4.6700   -0.6020   -0.1436 C   0  0  0  0  0  0  0  0  0  0  0  0
   -4.7205   -0.1861    1.4833 C   0  0  2  0  0  0  0  0  0  0  0  0
   -5.9882    0.8854    1.2222 C   0  0  0  0  0  0  0  0  0  0  0  0
   -7.0151   -0.0040    0.6885 N   0  0  0  0  0  0  0  0  0  0  0  0
   -7.9284   -0.6669    1.3904 N   0  0  0  0  0  0  0  0  0  0  0  0
   -8.6971   -1.3801    0.5562 C   0  0  0  0  0  0  0  0  0  0  0  0
   -8.2418   -1.1462   -0.6818 N   0  0  0  0  0  0  0  0  0  0  0  0
   -7.2277   -0.3140   -0.5783 N   0  0  0  0  0  0  0  0  0  0  0  0
   -3.6144    0.9356    1.3132 N   0  0  0  0  0  0  0  0  0  0  0  0
   -2.3625    0.4972    0.8431 C   0  0  0  0  0  0  0  0  0  0  0  0
   -2.0621   -0.7767    0.5403 N   0  0  0  0  0  0  0  0  0  0  0  0
   -0.8471   -1.1386    0.0944 C   0  0  0  0  0  0  0  0  0  0  0  0
    0.1482   -0.1948   -0.0694 C   0  0  0  0  0  0  0  0  0  0  0  0
    1.3963   -0.5046   -0.5163 C   0  0  0  0  0  0  0  0  0  0  0  0
    2.4291    0.4694   -0.6861 C   0  0  0  0  0  0  0  0  0  0  0  0
    3.5645   -0.0414   -1.1298 O   0  0  0  0  0  0  0  0  0  0  0  0
    4.8421   -0.2616   -0.8974 C   0  0  0  0  0  0  0  0  0  0  0  0
    5.2012   -1.6310   -0.8221 C   0  0  0  0  0  0  0  0  0  0  0  0
    6.4729   -2.0583   -0.5902 C   0  0  0  0  0  0  0  0  0  0  0  0
    7.4657   -1.0886   -0.4196 C   0  0  0  0  0  0  0  0  0  0  0  0
    8.7265   -1.5287   -0.1892 F   0  0  0  0  0  0  0  0  0  0  0  0
    7.1303    0.2290   -0.4907 C   0  0  0  0  0  0  0  0  0  0  0  0
    5.8458    0.6460   -0.7251 C   0  0  0  0  0  0  0  0  0  0  0  0
    5.5965    2.0102   -0.8024 F   0  0  0  0  0  0  0  0  0  0  0  0
    2.0444    1.7274   -0.3602 C   0  0  0  0  0  0  0  0  0  0  0  0
    2.8566    2.6596   -0.4694 O   0  0  0  0  0  0  0  0  0  0  0  0
    0.7882    2.0258    0.0878 N   0  0  0  0  0  0  0  0  0  0  0  0
    0.4423    3.4016    0.4211 C   0  0  0  0  0  0  0  0  0  0  0  0
   -0.1692    1.1030    0.2427 C   0  0  0  0  0  0  0  0  0  0  0  0
   -1.4065    1.4189    0.6882 N   0  0  0  0  0  0  0  0  0  0  0  0
  1  2  1  0
  2  3  1  0
  3  4  1  1
  3  5  1  0
  5  6  1  0
  6  7  2  0
  6  8  1  0
  8  9  1  0
  9 10  1  0
 10 11  1  0
 11 12  1  0
 11 13  2  0
 15 14  1  6
 15 16  1  0
 16 17  1  0
 17 18  1  0
 18 19  2  0
 19 20  1  0
 20 21  2  0
 15 22  1  0
 22 23  1  0
 23 24  2  0
 24 25  1  0
 25 26  2  0
 26 27  1  0
 27 28  2  0
 28 29  1  0
 29 30  1  0
 30 31  2  0
 31 32  1  0
 32 33  2  0
 33 34  1  0
 33 35  1  0
 35 36  2  0
 36 37  1  0
 28 38  1  0
 38 39  2  0
 38 40  1  0
 40 41  1  0
 40 42  1  0
 42 43  2  0
 21 17  1  0
 43 23  1  0
 42 26  1  0
 36 30  1  0
M  RAD  1  12   2
M  END

