
     RDKit          3D

 44 46  0  0  0  0  0  0  0  0999 V2000
    4.5060   -1.1355    0.0192 C   0  0  0  0  0  0  0  0  0  0  0  0
    4.2570    0.2338    0.6554 C   0  0  0  0  0  0  0  0  0  0  0  0
    4.8475    1.3034   -0.2709 C   0  0  0  0  0  0  0  0  0  0  0  0
    2.7440    0.4410    0.5959 C   0  0  0  0  0  0  0  0  0  0  0  0
    2.3597    0.3986   -0.8578 C   0  0  0  0  0  0  0  0  0  0  0  0
    0.9372    0.5838   -1.0577 N   0  0  0  0  0  0  0  0  0  0  0  0
   -0.0006   -0.3014   -0.4967 C   0  0  0  0  0  0  0  0  0  0  0  0
    0.4139   -1.2588    0.1829 O   0  0  0  0  0  0  0  0  0  0  0  0
   -1.4803   -0.1390   -0.6838 C   0  0  0  0  0  0  0  0  0  0  0  0
   -2.2199   -1.2383    0.0349 C   0  0  0  0  0  0  0  0  0  0  0  0
   -3.6999   -1.0098   -0.1978 C   0  0  0  0  0  0  0  0  0  0  0  0
   -4.1183    0.3140    0.3318 C   0  0  0  0  0  0  0  0  0  0  0  0
   -3.2184    1.1738    0.9447 O   0  0  0  0  0  1  0  0  0  0  0  0
   -5.3280    0.6343    0.2054 O   0  0  0  0  0  0  0  0  0  0  0  0
    4.0235   -1.5348   -0.7730 C   0  0  0  0  0  0  0  0  0  0  0  0
    4.4850   -1.4586    0.8110 C   0  0  1  0  0  0  0  0  0  0  0  0
    5.9938   -0.9267    0.4639 C   0  0  0  0  0  0  0  0  0  0  0  0
    5.7115    0.3135   -0.2586 N   0  0  0  0  0  0  0  0  0  0  0  0
    5.5879    1.5003    0.3057 N   0  0  0  0  0  0  0  0  0  0  0  0
    5.3348    2.3861   -0.6514 C   0  0  0  0  0  0  0  0  0  0  0  0
    5.3064    1.7192   -1.8076 N   0  0  0  0  0  0  0  0  0  0  0  0
    5.5371    0.4588   -1.5548 N   0  0  0  0  0  0  0  0  0  0  0  0
    3.8617   -0.0477    1.0558 N   0  0  0  0  0  0  0  0  0  0  0  0
    2.4613    0.0548    0.8469 C   0  0  0  0  0  0  0  0  0  0  0  0
    1.8029    1.1971    1.0193 N   0  0  0  0  0  0  0  0  0  0  0  0
    0.4689    1.2707    0.8143 C   0  0  0  0  0  0  0  0  0  0  0  0
   -0.2258    0.1427    0.4190 C   0  0  0  0  0  0  0  0  0  0  0  0
   -1.5854    0.1519    0.1938 C   0  0  0  0  0  0  0  0  0  0  0  0
   -2.2083   -1.0252   -0.2016 C   0  0  0  0  0  0  0  0  0  0  0  0
   -3.5752   -1.0872   -0.4457 O   0  0  0  0  0  0  0  0  0  0  0  0
   -4.3968    0.0007   -0.3140 C   0  0  0  0  0  0  0  0  0  0  0  0
   -5.0915    0.4136   -1.4471 C   0  0  0  0  0  0  0  0  0  0  0  0
   -5.9193    1.5061   -1.3238 C   0  0  0  0  0  0  0  0  0  0  0  0
   -6.0492    2.1549   -0.1325 C   0  0  0  0  0  0  0  0  0  0  0  0
   -6.8765    3.2303   -0.0494 F   0  0  0  0  0  0  0  0  0  0  0  0
   -5.3578    1.7406    0.9870 C   0  0  0  0  0  0  0  0  0  0  0  0
   -4.5238    0.6529    0.8940 C   0  0  0  0  0  0  0  0  0  0  0  0
   -3.8362    0.2399    2.0051 F   0  0  0  0  0  0  0  0  0  0  0  0
   -1.4804   -2.1878   -0.3675 C   0  0  0  0  0  0  0  0  0  0  0  0
   -2.0894   -3.2530   -0.7329 O   0  0  0  0  0  0  0  0  0  0  0  0
   -0.1750   -2.1621   -0.1427 N   0  0  0  0  0  0  0  0  0  0  0  0
    0.5946   -3.3799   -0.3153 C   0  0  0  0  0  0  0  0  0  0  0  0
    0.4426   -1.0424    0.2377 C   0  0  0  0  0  0  0  0  0  0  0  0
    1.7785   -1.0286    0.4646 N   0  0  0  0  0  0  0  0  0  0  0  0
  1  2  1  0
  2  3  1  0
  2  4  1  0
  4  5  1  0
  5  6  1  0
  6  7  1  0
  7  8  2  0
  7  9  1  0
  9 10  1  0
 10 11  1  0
 11 12  1  0
 12 13  1  0
 12 14  2  0
 16 15  1  1
 16 17  1  0
 17 18  1  0
 18 19  1  0
 19 20  2  0
 20 21  1  0
 21 22  2  0
 16 23  1  0
 23 24  1  0
 24 25  2  0
 25 26  1  0
 26 27  2  0
 27 28  1  0
 28 29  2  0
 29 30  1  0
 30 31  1  0
 31 32  2  0
 32 33  1  0
 33 34  2  0
 34 35  1  0
 34 36  1  0
 36 37  2  0
 37 38  1  0
 29 39  1  0
 39 40  2  0
 39 41  1  0
 41 42  1  0
 41 43  1  0
 43 44  2  0
 22 18  1  0
 44 24  1  0
 43 27  1  0
 37 31  1  0
M  RAD  1  13   2
M  END

