
     RDKit          3D

 14 13  0  0  0  0  0  0  0  0999 V2000
   -4.8459    0.8509    1.2788 N   0  0  0  0  0  4  0  0  0  0  0  0
   -5.2680    0.4427   -0.0314 C   0  0  0  0  0  0  0  0  0  0  0  0
   -4.4376   -0.6454   -0.6291 C   0  0  0  0  0  0  0  0  0  0  0  0
   -3.0127   -0.2323   -0.7690 C   0  0  0  0  0  0  0  0  0  0  0  0
   -2.1807   -1.3417   -1.3753 C   0  0  0  0  0  0  0  0  0  0  0  0
   -0.7422   -0.9616   -1.5309 C   0  0  0  0  0  0  0  0  0  0  0  0
   -0.1792   -0.6414   -0.2149 N   0  0  0  0  0  0  0  0  0  0  0  0
    1.1653   -0.2483   -0.0560 C   0  0  0  0  0  0  0  0  0  0  0  0
    1.8792   -0.1784   -1.0874 O   0  0  0  0  0  0  0  0  0  0  0  0
    1.6867    0.0650    1.2970 C   0  0  0  0  0  0  0  0  0  0  0  0
    3.1252    0.4564    1.2971 C   0  0  0  0  0  0  0  0  0  0  0  0
    3.9991   -0.6247    0.7603 C   0  0  0  0  0  0  0  0  0  0  0  0
    5.3714   -0.4675    0.6659 O   0  0  0  0  0  1  0  0  0  0  0  0
    3.4394   -1.6896    0.3949 O   0  0  0  0  0  0  0  0  0  0  0  0
  1  2  1  0
  2  3  1  0
  3  4  1  0
  4  5  1  0
  5  6  1  0
  6  7  1  0
  7  8  1  0
  8  9  2  0
  8 10  1  0
 10 11  1  0
 11 12  1  0
 12 13  1  0
 12 14  2  0
M  CHG  1   1   1
M  RAD  1  13   2
M  END

