
     RDKit          3D

 39 41  0  0  0  0  0  0  0  0999 V2000
    2.8372   -0.2179    1.0317 C   0  0  0  0  0  0  0  0  0  0  0  0
    2.4895   -1.1736   -0.0866 C   0  0  0  0  0  0  0  0  0  0  0  0
    1.0628   -1.4865    0.0117 N   0  0  0  0  0  0  0  0  0  0  0  0
    0.1010   -0.4415   -0.0845 C   0  0  0  0  0  0  0  0  0  0  0  0
    0.4864    0.7411   -0.2532 O   0  0  0  0  0  0  0  0  0  0  0  0
   -1.3543   -0.6893    0.0065 C   0  0  0  0  0  0  0  0  0  0  0  0
   -2.1039    0.5857   -0.1281 C   0  0  0  0  0  0  0  0  0  0  0  0
   -1.6759    1.5125    0.9901 C   0  0  0  0  0  0  0  0  0  0  0  0
   -1.8428    1.1695   -1.4875 C   0  0  0  0  0  0  0  0  0  0  0  0
   -3.1316    2.5582    2.8904 C   0  0  0  0  0  0  0  0  0  0  0  0
   -4.1238    2.9815    1.6369 C   0  0  2  0  0  0  0  0  0  0  0  0
   -4.5188    1.4198    1.2809 C   0  0  0  0  0  0  0  0  0  0  0  0
   -5.1287    0.9126    2.4691 N   0  0  0  0  0  0  0  0  0  0  0  0
   -4.5179    0.3153    3.4708 N   0  0  0  0  0  0  0  0  0  0  0  0
   -5.4626    0.0011    4.3766 C   0  0  0  0  0  0  0  0  0  0  0  0
   -6.6308    0.4247    3.8861 N   0  0  0  0  0  0  0  0  0  0  0  0
   -6.4189    0.9773    2.7267 N   0  0  0  0  0  0  0  0  0  0  0  0
   -2.9568    3.0837    0.5926 N   0  0  0  0  0  0  0  0  0  0  0  0
   -2.1515    1.9798    0.3565 C   0  0  0  0  0  0  0  0  0  0  0  0
   -2.2836    0.7869    0.9619 N   0  0  0  0  0  0  0  0  0  0  0  0
   -1.4944   -0.2752    0.7224 C   0  0  0  0  0  0  0  0  0  0  0  0
   -0.4731   -0.1557   -0.2037 C   0  0  0  0  0  0  0  0  0  0  0  0
    0.3802   -1.2061   -0.5031 C   0  0  0  0  0  0  0  0  0  0  0  0
    1.3964   -1.0694   -1.4318 C   0  0  0  0  0  0  0  0  0  0  0  0
    2.2614   -2.1139   -1.7436 O   0  0  0  0  0  0  0  0  0  0  0  0
    3.6237   -2.0369   -1.5637 C   0  0  0  0  0  0  0  0  0  0  0  0
    4.2216   -0.9061   -1.0573 C   0  0  0  0  0  0  0  0  0  0  0  0
    5.5877   -0.8005   -0.8658 C   0  0  0  0  0  0  0  0  0  0  0  0
    6.3427   -1.9120   -1.2158 C   0  0  0  0  0  0  0  0  0  0  0  0
    7.6803   -1.8859   -1.0584 F   0  0  0  0  0  0  0  0  0  0  0  0
    5.7434   -3.0432   -1.7226 C   0  0  0  0  0  0  0  0  0  0  0  0
    4.3887   -3.1297   -1.9053 C   0  0  0  0  0  0  0  0  0  0  0  0
    3.8179   -4.2591   -2.4082 F   0  0  0  0  0  0  0  0  0  0  0  0
    1.4965    0.1727   -2.0300 C   0  0  0  0  0  0  0  0  0  0  0  0
    2.4111    0.3416   -2.8849 O   0  0  0  0  0  0  0  0  0  0  0  0
    0.6595    1.1825   -1.7279 N   0  0  0  0  0  0  0  0  0  0  0  0
    0.7825    2.4915   -2.3733 C   0  0  0  0  0  0  0  0  0  0  0  0
   -0.3385    1.0701   -0.8248 C   0  0  0  0  0  0  0  0  0  0  0  0
   -1.1625    2.0944   -0.5398 N   0  0  0  0  0  0  0  0  0  0  0  0
  1  2  1  0
  2  3  1  0
  3  4  1  0
  4  5  2  0
  4  6  1  0
  6  7  1  0
  7  8  1  0
  7  9  1  0
 11 10  1  1
 11 12  1  0
 12 13  1  0
 13 14  1  0
 14 15  2  0
 15 16  1  0
 16 17  2  0
 11 18  1  0
 18 19  1  0
 19 20  2  0
 20 21  1  0
 21 22  2  0
 22 23  1  0
 23 24  2  0
 24 25  1  0
 25 26  1  0
 26 27  2  0
 27 28  1  0
 28 29  2  0
 29 30  1  0
 29 31  1  0
 31 32  2  0
 32 33  1  0
 24 34  1  0
 34 35  2  0
 34 36  1  0
 36 37  1  0
 36 38  1  0
 38 39  2  0
 17 13  1  0
 39 19  1  0
 38 22  1  0
 32 26  1  0
M  END

