
     RDKit          3D

 42 45  0  0  0  0  0  0  0  0999 V2000
    3.8255    1.9349   -1.5841 C   0  0  0  0  0  0  0  0  0  0  0  0
    2.3523    1.7437   -1.5096 C   0  0  0  0  0  0  0  0  0  0  0  0
    1.9740    0.3773   -1.0747 C   0  0  0  0  0  0  0  0  0  0  0  0
    2.8914   -0.4447   -0.8242 O   0  0  0  0  0  0  0  0  0  0  0  0
    0.6445   -0.0676   -0.9214 N   0  0  0  0  0  0  0  0  0  0  0  0
    0.3859   -1.4492   -0.4829 C   0  0  0  0  0  0  0  0  0  0  0  0
   -1.0801   -1.7159   -0.3845 C   0  0  0  0  0  0  0  0  0  0  0  0
   -1.6613   -0.7734    0.6015 C   0  0  0  0  0  0  0  0  0  0  0  0
   -2.9993   -0.7557    0.9273 C   0  0  0  0  0  0  0  0  0  0  0  0
   -3.2148    0.1985    1.8393 N   0  0  0  0  0  0  0  0  0  0  0  0
   -2.0287    0.7719    2.0827 C   0  0  0  0  0  0  0  0  0  0  0  0
   -1.0894    0.1801    1.3306 N   0  0  0  0  0  0  0  0  0  0  0  0
    1.6300   -3.6798   -5.2253 C   0  0  0  0  0  0  0  0  0  0  0  0
    1.5493   -3.2220   -3.6195 C   0  0  1  0  0  0  0  0  0  0  0  0
    3.1810   -3.5862   -3.4647 C   0  0  0  0  0  0  0  0  0  0  0  0
    3.4955   -3.2635   -2.0950 N   0  0  0  0  0  0  0  0  0  0  0  0
    3.4303   -4.0470   -1.0367 N   0  0  0  0  0  0  0  0  0  0  0  0
    3.8392   -3.3132    0.0286 C   0  0  0  0  0  0  0  0  0  0  0  0
    4.1491   -2.0790   -0.4083 N   0  0  0  0  0  0  0  0  0  0  0  0
    3.9256   -2.0876   -1.7113 N   0  0  0  0  0  0  0  0  0  0  0  0
    1.8471   -1.7113   -3.8650 N   0  0  0  0  0  0  0  0  0  0  0  0
    1.4685   -0.7895   -2.8662 C   0  0  0  0  0  0  0  0  0  0  0  0
    1.6649    0.5124   -2.9165 N   0  0  0  0  0  0  0  0  0  0  0  0
    1.2399    1.3601   -1.9654 C   0  0  0  0  0  0  0  0  0  0  0  0
    0.5500    0.9042   -0.8450 C   0  0  0  0  0  0  0  0  0  0  0  0
    0.0983    1.7281    0.1298 C   0  0  0  0  0  0  0  0  0  0  0  0
   -0.6270    1.2444    1.2891 C   0  0  0  0  0  0  0  0  0  0  0  0
   -1.0077    2.1779    2.1589 O   0  0  0  0  0  0  0  0  0  0  0  0
   -2.1414    2.6687    2.6591 C   0  0  0  0  0  0  0  0  0  0  0  0
   -2.5312    3.9974    2.2651 C   0  0  0  0  0  0  0  0  0  0  0  0
   -3.6594    4.6046    2.7081 C   0  0  0  0  0  0  0  0  0  0  0  0
   -4.5246    3.9985    3.5739 C   0  0  0  0  0  0  0  0  0  0  0  0
   -5.6627    4.6144    4.0134 F   0  0  0  0  0  0  0  0  0  0  0  0
   -4.1966    2.7230    3.9859 C   0  0  0  0  0  0  0  0  0  0  0  0
   -3.0160    2.0950    3.5176 C   0  0  0  0  0  0  0  0  0  0  0  0
   -2.7506    0.8508    4.0321 F   0  0  0  0  0  0  0  0  0  0  0  0
   -0.7910   -0.1004    1.2817 C   0  0  0  0  0  0  0  0  0  0  0  0
   -1.4075   -0.6571    2.2484 O   0  0  0  0  0  0  0  0  0  0  0  0
   -0.3222   -0.9065    0.2831 N   0  0  0  0  0  0  0  0  0  0  0  0
   -0.5704   -2.3131    0.4065 C   0  0  0  0  0  0  0  0  0  0  0  0
    0.3468   -0.4471   -0.7905 C   0  0  0  0  0  0  0  0  0  0  0  0
    0.7930   -1.2762   -1.7716 N   0  0  0  0  0  0  0  0  0  0  0  0
  1  2  1  0
  2  3  1  0
  3  4  2  0
  3  5  1  0
  5  6  1  0
  6  7  1  0
  7  8  1  0
  8  9  2  0
  9 10  1  0
 10 11  1  0
 11 12  2  0
 14 13  1  1
 14 15  1  0
 15 16  1  0
 16 17  1  0
 17 18  2  0
 18 19  1  0
 19 20  2  0
 14 21  1  0
 21 22  1  0
 22 23  2  0
 23 24  1  0
 24 25  2  0
 25 26  1  0
 26 27  2  0
 27 28  1  0
 28 29  1  0
 29 30  2  0
 30 31  1  0
 31 32  2  0
 32 33  1  0
 32 34  1  0
 34 35  2  0
 35 36  1  0
 27 37  1  0
 37 38  2  0
 37 39  1  0
 39 40  1  0
 39 41  1  0
 41 42  2  0
 12  8  1  0
 20 16  1  0
 42 22  1  0
 41 25  1  0
 35 29  1  0
M  END

