
     RDKit          3D

 12 11  0  0  0  0  0  0  0  0999 V2000
   -4.7901    0.2640    0.9455 N   0  0  0  0  0  4  0  0  0  0  0  0
   -3.7578    0.7931    0.0967 C   0  0  0  0  0  0  0  0  0  0  0  0
   -2.4382    0.9505    0.8042 C   0  0  0  0  0  0  0  0  0  0  0  0
   -1.9018   -0.3397    1.3376 C   0  0  0  0  0  0  0  0  0  0  0  0
   -1.6676   -1.3709    0.2574 C   0  0  0  0  0  0  0  0  0  0  0  0
   -0.6667   -0.8438   -0.7508 C   0  0  0  0  0  0  0  0  0  0  0  0
    0.6206   -0.5594   -0.0199 C   0  0  0  0  0  0  0  0  0  0  0  0
    0.7191   -0.7666    1.2159 O   0  0  0  0  0  0  0  0  0  0  0  0
    1.7569   -0.0521   -0.6943 N   0  0  0  0  0  0  0  0  0  0  0  0
    2.9692    0.2028    0.0606 C   0  0  0  0  0  0  0  0  0  0  0  0
    3.9931    0.7355   -0.9367 C   0  0  0  0  0  0  0  0  0  0  0  0
    5.1633    0.9867   -0.2344 O   0  0  0  0  0  0  0  0  0  0  0  0
  1  2  1  0
  2  3  1  0
  3  4  1  0
  4  5  1  0
  5  6  1  0
  6  7  1  0
  7  8  2  0
  7  9  1  0
  9 10  1  0
 10 11  1  0
 11 12  1  0
M  CHG  1   1   1
M  END

