
     RDKit          3D

 43 45  0  0  0  0  0  0  0  0999 V2000
   -1.6510    1.4037   -1.2652 C   0  0  0  0  0  0  0  0  0  0  0  0
   -2.5128    0.6998   -0.2809 C   0  0  0  0  0  0  0  0  0  0  0  0
   -2.7774   -0.7736   -0.8321 C   0  0  2  0  0  0  0  0  0  0  0  0
   -3.7876   -1.1823    0.4392 C   0  0  0  0  0  0  0  0  0  0  0  0
   -1.5472   -1.5079   -0.1593 C   0  0  0  0  0  0  0  0  0  0  0  0
   -0.2664   -1.0520   -0.6078 C   0  0  0  0  0  0  0  0  0  0  0  0
    0.0095   -0.3879   -1.6199 O   0  0  0  0  0  0  0  0  0  0  0  0
    0.8786   -1.3893    0.1976 N   0  0  0  0  0  0  0  0  0  0  0  0
    2.2076   -0.9995   -0.1314 C   0  0  0  0  0  0  0  0  0  0  0  0
    2.4081    0.4855   -0.2159 C   0  0  0  0  0  0  0  0  0  0  0  0
    2.1108    1.2078    1.0439 C   0  0  0  0  0  0  0  0  0  0  0  0
    2.9253    0.8131    2.2212 C   0  0  0  0  0  0  0  0  0  0  0  0
    2.0024    2.6825    0.8288 C   0  0  0  0  0  0  0  0  0  0  0  0
    3.9582   -0.8672    1.4036 C   0  0  0  0  0  0  0  0  0  0  0  0
    4.5851   -1.1936   -0.0954 C   0  0  2  0  0  0  0  0  0  0  0  0
    5.9835   -0.3669    0.1818 C   0  0  0  0  0  0  0  0  0  0  0  0
    5.6385    0.9942    0.4680 N   0  0  0  0  0  0  0  0  0  0  0  0
    5.3969    1.4295    1.6907 N   0  0  0  0  0  0  0  0  0  0  0  0
    5.0984    2.7400    1.6764 C   0  0  0  0  0  0  0  0  0  0  0  0
    5.1714    3.0794    0.3785 N   0  0  0  0  0  0  0  0  0  0  0  0
    5.4952    2.0258   -0.3321 N   0  0  0  0  0  0  0  0  0  0  0  0
    3.8444    0.0105   -0.7875 N   0  0  0  0  0  0  0  0  0  0  0  0
    2.4354   -0.0428   -0.7003 C   0  0  0  0  0  0  0  0  0  0  0  0
    1.6843    0.9387   -1.2586 N   0  0  0  0  0  0  0  0  0  0  0  0
    0.3469    0.9009   -1.1835 C   0  0  0  0  0  0  0  0  0  0  0  0
   -0.2722   -0.1513   -0.5291 C   0  0  0  0  0  0  0  0  0  0  0  0
   -1.6513   -0.2263   -0.4300 C   0  0  0  0  0  0  0  0  0  0  0  0
   -2.1968   -1.3014    0.2352 C   0  0  0  0  0  0  0  0  0  0  0  0
   -3.5587   -1.4128    0.3554 O   0  0  0  0  0  0  0  0  0  0  0  0
   -4.3991   -0.4566   -0.1842 C   0  0  0  0  0  0  0  0  0  0  0  0
   -5.3423   -0.7964   -1.1497 C   0  0  0  0  0  0  0  0  0  0  0  0
   -6.1942    0.1391   -1.7053 C   0  0  0  0  0  0  0  0  0  0  0  0
   -6.0601    1.4437   -1.2479 C   0  0  0  0  0  0  0  0  0  0  0  0
   -6.8897    2.3717   -1.7846 F   0  0  0  0  0  0  0  0  0  0  0  0
   -5.1475    1.8150   -0.3029 C   0  0  0  0  0  0  0  0  0  0  0  0
   -4.3112    0.8593    0.2330 C   0  0  0  0  0  0  0  0  0  0  0  0
   -3.3928    1.1877    1.1726 F   0  0  0  0  0  0  0  0  0  0  0  0
   -1.3752   -2.2669    0.7811 C   0  0  0  0  0  0  0  0  0  0  0  0
   -1.8768   -3.2423    1.3850 O   0  0  0  0  0  0  0  0  0  0  0  0
   -0.0531   -2.1853    0.6804 N   0  0  0  0  0  0  0  0  0  0  0  0
    0.7843   -3.2220    1.2683 C   0  0  0  0  0  0  0  0  0  0  0  0
    0.4812   -1.1504    0.0397 C   0  0  0  0  0  0  0  0  0  0  0  0
    1.8175   -1.0530   -0.0711 N   0  0  0  0  0  0  0  0  0  0  0  0
  1  2  1  0
  2  3  1  0
  3  4  1  1
  3  5  1  0
  5  6  1  0
  6  7  2  0
  6  8  1  0
  8  9  1  0
  9 10  1  0
 10 11  1  0
 11 12  1  0
 11 13  1  0
 15 14  1  1
 15 16  1  0
 16 17  1  0
 17 18  1  0
 18 19  2  0
 19 20  1  0
 20 21  2  0
 15 22  1  0
 22 23  1  0
 23 24  2  0
 24 25  1  0
 25 26  2  0
 26 27  1  0
 27 28  2  0
 28 29  1  0
 29 30  1  0
 30 31  2  0
 31 32  1  0
 32 33  2  0
 33 34  1  0
 33 35  1  0
 35 36  2  0
 36 37  1  0
 28 38  1  0
 38 39  2  0
 38 40  1  0
 40 41  1  0
 40 42  1  0
 42 43  2  0
 21 17  1  0
 43 23  1  0
 42 26  1  0
 36 30  1  0
M  END

