
     RDKit          3D

 43 46  0  0  0  0  0  0  0  0999 V2000
   -4.8499   -0.5137   -1.6663 C   0  0  0  0  0  0  0  0  0  0  0  0
   -4.3604   -0.3610   -0.2479 C   0  0  0  0  0  0  0  0  0  0  0  0
   -2.8861   -0.4527   -0.2496 C   0  0  0  0  0  0  0  0  0  0  0  0
   -2.2788   -0.6295   -1.3271 O   0  0  0  0  0  0  0  0  0  0  0  0
   -2.0958   -0.3497    0.9269 N   0  0  0  0  0  0  0  0  0  0  0  0
   -0.6492   -0.4395    0.9263 C   0  0  0  0  0  0  0  0  0  0  0  0
   -0.0228    0.6413    0.0733 C   0  0  0  0  0  0  0  0  0  0  0  0
    1.4554    0.4936    0.1153 C   0  0  0  0  0  0  0  0  0  0  0  0
    2.1170   -0.2888   -0.7994 C   0  0  0  0  0  0  0  0  0  0  0  0
    3.4866   -0.4367   -0.7750 C   0  0  0  0  0  0  0  0  0  0  0  0
    4.2473    0.2036    0.1800 C   0  0  0  0  0  0  0  0  0  0  0  0
    3.6039    0.9934    1.1073 C   0  0  0  0  0  0  0  0  0  0  0  0
    2.2329    1.1396    1.0804 C   0  0  0  0  0  0  0  0  0  0  0  0
   -3.8884   -0.7086   -2.1325 C   0  0  0  0  0  0  0  0  0  0  0  0
   -4.3698   -1.8021   -1.0136 C   0  0  2  0  0  0  0  0  0  0  0  0
   -5.8970   -1.2430   -0.9389 C   0  0  0  0  0  0  0  0  0  0  0  0
   -5.8798    0.1175   -0.5334 N   0  0  0  0  0  0  0  0  0  0  0  0
   -5.8138    1.2448   -1.2026 N   0  0  0  0  0  0  0  0  0  0  0  0
   -5.8278    2.2928   -0.3625 C   0  0  0  0  0  0  0  0  0  0  0  0
   -5.9049    1.7915    0.8608 N   0  0  0  0  0  0  0  0  0  0  0  0
   -5.9357    0.4806    0.7462 N   0  0  0  0  0  0  0  0  0  0  0  0
   -3.8417   -0.9667    0.1960 N   0  0  0  0  0  0  0  0  0  0  0  0
   -2.4381   -0.7293    0.1321 C   0  0  0  0  0  0  0  0  0  0  0  0
   -1.8323   -0.0234    1.1024 N   0  0  0  0  0  0  0  0  0  0  0  0
   -0.5282    0.2562    1.1407 C   0  0  0  0  0  0  0  0  0  0  0  0
    0.2645   -0.2210    0.0939 C   0  0  0  0  0  0  0  0  0  0  0  0
    1.6201    0.0197    0.0511 C   0  0  0  0  0  0  0  0  0  0  0  0
    2.3676   -0.4726   -1.0059 C   0  0  0  0  0  0  0  0  0  0  0  0
    3.7360   -0.2566   -1.0937 O   0  0  0  0  0  0  0  0  0  0  0  0
    4.4545    0.4537   -0.1527 C   0  0  0  0  0  0  0  0  0  0  0  0
    5.1473    1.5919   -0.5066 C   0  0  0  0  0  0  0  0  0  0  0  0
    5.8689    2.3108    0.4227 C   0  0  0  0  0  0  0  0  0  0  0  0
    5.9390    1.9363    1.7490 C   0  0  0  0  0  0  0  0  0  0  0  0
    6.6584    2.6618    2.6518 F   0  0  0  0  0  0  0  0  0  0  0  0
    5.2438    0.7973    2.0957 C   0  0  0  0  0  0  0  0  0  0  0  0
    4.5195    0.0728    1.1709 C   0  0  0  0  0  0  0  0  0  0  0  0
    3.8306   -1.0535    1.5078 F   0  0  0  0  0  0  0  0  0  0  0  0
    1.7602   -1.1979   -2.0077 C   0  0  0  0  0  0  0  0  0  0  0  0
    2.4604   -1.6276   -2.9460 O   0  0  0  0  0  0  0  0  0  0  0  0
    0.4264   -1.4121   -1.9283 N   0  0  0  0  0  0  0  0  0  0  0  0
   -0.1725   -2.1915   -3.0223 C   0  0  0  0  0  0  0  0  0  0  0  0
   -0.3249   -0.9482   -0.9170 C   0  0  0  0  0  0  0  0  0  0  0  0
   -1.6423   -1.1734   -0.8608 N   0  0  0  0  0  0  0  0  0  0  0  0
  1  2  1  0
  2  3  1  0
  3  4  2  0
  3  5  1  0
  5  6  1  0
  6  7  1  0
  7  8  1  0
  8  9  2  0
  9 10  1  0
 10 11  2  0
 11 12  1  0
 12 13  2  0
 15 14  1  6
 15 16  1  0
 16 17  1  0
 17 18  1  0
 18 19  2  0
 19 20  1  0
 20 21  2  0
 15 22  1  0
 22 23  1  0
 23 24  2  0
 24 25  1  0
 25 26  2  0
 26 27  1  0
 27 28  2  0
 28 29  1  0
 29 30  1  0
 30 31  2  0
 31 32  1  0
 32 33  2  0
 33 34  1  0
 33 35  1  0
 35 36  2  0
 36 37  1  0
 28 38  1  0
 38 39  2  0
 38 40  1  0
 40 41  1  0
 40 42  1  0
 42 43  2  0
 13  8  1  0
 21 17  1  0
 43 23  1  0
 42 26  1  0
 36 30  1  0
M  END

