
     RDKit          3D

 14 13  0  0  0  0  0  0  0  0999 V2000
   -4.1763   -0.1689   -2.1326 O   0  0  0  0  0  1  0  0  0  0  0  0
   -3.8494   -0.2990   -0.7921 C   0  0  0  0  0  0  0  0  0  0  0  0
   -4.7341   -0.0226    0.0514 O   0  0  0  0  0  0  0  0  0  0  0  0
   -2.4948   -0.7507   -0.3734 C   0  0  0  0  0  0  0  0  0  0  0  0
   -2.4278   -0.8136    1.1079 C   0  0  0  0  0  0  0  0  0  0  0  0
   -1.0984   -1.2539    1.6378 C   0  0  0  0  0  0  0  0  0  0  0  0
    0.0241   -0.3946    1.2640 C   0  0  0  0  0  0  0  0  0  0  0  0
   -0.1353    0.6269    0.5493 O   0  0  0  0  0  0  0  0  0  0  0  0
    1.3250   -0.7047    1.7074 N   0  0  0  0  0  0  0  0  0  0  0  0
    2.4689    0.1116    1.3646 C   0  0  0  0  0  0  0  0  0  0  0  0
    2.6143    0.1392   -0.1416 C   0  0  0  0  0  0  0  0  0  0  0  0
    3.7877    0.9801   -0.4741 C   0  0  0  0  0  0  0  0  0  0  0  0
    4.9961    0.3368   -0.7248 O   0  0  0  0  0  1  0  0  0  0  0  0
    3.7002    2.2133   -0.5286 O   0  0  0  0  0  0  0  0  0  0  0  0
  1  2  1  0
  2  3  2  0
  2  4  1  0
  4  5  1  0
  5  6  1  0
  6  7  1  0
  7  8  2  0
  7  9  1  0
  9 10  1  0
 10 11  1  0
 11 12  1  0
 12 13  1  0
 12 14  2  0
M  RAD  2   1   2  13   2
M  END

