
     RDKit          3D

 14 14  0  0  0  0  0  0  0  0999 V2000
    2.2342    0.9135   -0.4963 O   0  0  0  0  0  0  0  0  0  0  0  0
    2.5655   -0.1139    0.1374 C   0  0  0  0  0  0  0  0  0  0  0  0
    3.9514   -0.2604    0.6347 C   0  0  0  0  0  0  0  0  0  0  0  0
    4.8162    0.9201    0.2851 C   0  0  0  0  0  0  0  0  0  0  0  0
    4.2581    2.0644    0.8607 O   0  0  0  0  0  0  0  0  0  0  0  0
    1.6269   -1.1289    0.3787 N   0  0  0  0  0  0  0  0  0  0  0  0
    0.2474   -1.0819   -0.0650 C   0  0  0  0  0  0  0  0  0  0  0  0
   -0.4482    0.1129    0.5334 C   0  0  0  0  0  0  0  0  0  0  0  0
   -1.8626    0.1378    0.0621 C   0  0  0  0  0  0  0  0  0  0  0  0
   -2.8669   -0.5043    0.7665 C   0  0  0  0  0  0  0  0  0  0  0  0
   -4.1908   -0.4939    0.3456 C   0  0  0  0  0  0  0  0  0  0  0  0
   -4.5423    0.1727   -0.8115 C   0  0  0  0  0  0  0  0  0  0  0  0
   -3.5468    0.8295   -1.5417 C   0  0  0  0  0  0  0  0  0  0  0  0
   -2.2422    0.7954   -1.0895 C   0  0  0  0  0  0  0  0  0  0  0  0
  1  2  2  0
  2  3  1  0
  3  4  1  0
  4  5  1  0
  2  6  1  0
  6  7  1  0
  7  8  1  0
  8  9  1  0
  9 10  2  0
 10 11  1  0
 11 12  2  0
 12 13  1  0
 13 14  2  0
 14  9  1  0
M  END

