
     RDKit          3D

 46 48  0  0  0  0  0  0  0  0999 V2000
    5.5462    1.8946    1.7468 C   0  0  0  0  0  0  0  0  0  0  0  0
    4.8778    1.0779    0.6587 C   0  0  0  0  0  0  0  0  0  0  0  0
    5.8170   -0.0237    0.2359 C   0  0  0  0  0  0  0  0  0  0  0  0
    3.5324    0.5625    1.0940 C   0  0  0  0  0  0  0  0  0  0  0  0
    2.9272   -0.2305   -0.0159 C   0  0  0  0  0  0  0  0  0  0  0  0
    1.6058   -0.7832    0.3039 C   0  0  0  0  0  0  0  0  0  0  0  0
    1.0325   -0.6144    1.3933 O   0  0  0  0  0  0  0  0  0  0  0  0
    0.9454   -1.5563   -0.6927 N   0  0  0  0  0  0  0  0  0  0  0  0
   -0.3491   -2.1473   -0.4948 C   0  0  0  0  0  0  0  0  0  0  0  0
   -1.3961   -1.1222   -0.2045 C   0  0  0  0  0  0  0  0  0  0  0  0
   -1.5671   -0.1065   -1.3108 C   0  0  0  0  0  0  0  0  0  0  0  0
   -2.6695    0.8515   -0.8402 C   0  0  0  0  0  0  0  0  0  0  0  0
   -3.8540    0.0139   -0.6458 N   0  0  0  0  0  0  0  0  0  0  0  0
   -5.0850    0.5804   -0.2042 C   0  0  0  0  0  0  0  0  0  0  0  0
   -6.2543   -0.2423   -0.0117 N   0  0  0  0  0  0  0  0  0  0  0  0
   -5.1091    1.8455    0.0135 N   0  0  0  0  0  4  0  0  0  0  0  0
    3.1294    2.2791    0.1009 C   0  0  0  0  0  0  0  0  0  0  0  0
    4.1923    1.2249    0.8192 C   0  0  2  0  0  0  0  0  0  0  0  0
    5.4917    1.8755   -0.0201 C   0  0  0  0  0  0  0  0  0  0  0  0
    6.6383    1.1364    0.4021 N   0  0  0  0  0  0  0  0  0  0  0  0
    7.5030    1.2907    1.3686 N   0  0  0  0  0  0  0  0  0  0  0  0
    8.4010    0.3137    1.3366 C   0  0  0  0  0  0  0  0  0  0  0  0
    8.0808   -0.4863    0.3022 N   0  0  0  0  0  0  0  0  0  0  0  0
    7.0184    0.0294   -0.2431 N   0  0  0  0  0  0  0  0  0  0  0  0
    3.9036    0.0910   -0.2551 N   0  0  0  0  0  0  0  0  0  0  0  0
    2.5338   -0.2993   -0.2661 C   0  0  0  0  0  0  0  0  0  0  0  0
    2.2024   -1.2541   -1.1457 N   0  0  0  0  0  0  0  0  0  0  0  0
    0.9527   -1.7328   -1.2809 C   0  0  0  0  0  0  0  0  0  0  0  0
   -0.0616   -1.2285   -0.4803 C   0  0  0  0  0  0  0  0  0  0  0  0
   -1.3623   -1.6932   -0.5867 C   0  0  0  0  0  0  0  0  0  0  0  0
   -2.3334   -1.1601    0.2308 C   0  0  0  0  0  0  0  0  0  0  0  0
   -3.6523   -1.5881    0.1669 O   0  0  0  0  0  0  0  0  0  0  0  0
   -4.7150   -0.7722   -0.1324 C   0  0  0  0  0  0  0  0  0  0  0  0
   -4.4975    0.5547   -0.3901 C   0  0  0  0  0  0  0  0  0  0  0  0
   -5.5537    1.4234   -0.6999 C   0  0  0  0  0  0  0  0  0  0  0  0
   -6.8157    0.9005   -0.7368 C   0  0  0  0  0  0  0  0  0  0  0  0
   -7.8786    1.7193   -1.0368 F   0  0  0  0  0  0  0  0  0  0  0  0
   -7.0700   -0.4271   -0.4834 C   0  0  0  0  0  0  0  0  0  0  0  0
   -5.9869   -1.2602   -0.1780 C   0  0  0  0  0  0  0  0  0  0  0  0
   -6.2183   -2.5753    0.0756 F   0  0  0  0  0  0  0  0  0  0  0  0
   -1.9499   -0.1798    1.1217 C   0  0  0  0  0  0  0  0  0  0  0  0
   -2.8547    0.3117    1.8782 O   0  0  0  0  0  0  0  0  0  0  0  0
   -0.6693    0.2580    1.2064 N   0  0  0  0  0  0  0  0  0  0  0  0
   -0.3127    1.2929    2.1606 C   0  0  0  0  0  0  0  0  0  0  0  0
    0.2986   -0.2446    0.4208 C   0  0  0  0  0  0  0  0  0  0  0  0
    1.5859    0.2005    0.5110 N   0  0  0  0  0  0  0  0  0  0  0  0
  1  2  1  0
  2  3  1  0
  2  4  1  0
  4  5  1  0
  5  6  1  0
  6  7  2  0
  6  8  1  0
  8  9  1  0
  9 10  1  0
 10 11  1  0
 11 12  1  0
 12 13  1  0
 13 14  1  0
 14 15  1  0
 14 16  2  0
 18 17  1  6
 18 19  1  0
 19 20  1  0
 20 21  1  0
 21 22  2  0
 22 23  1  0
 23 24  2  0
 18 25  1  0
 25 26  1  0
 26 27  2  0
 27 28  1  0
 28 29  2  0
 29 30  1  0
 30 31  2  0
 31 32  1  0
 32 33  1  0
 33 34  2  0
 34 35  1  0
 35 36  2  0
 36 37  1  0
 36 38  1  0
 38 39  2  0
 39 40  1  0
 31 41  1  0
 41 42  2  0
 41 43  1  0
 43 44  1  0
 43 45  1  0
 45 46  2  0
 24 20  1  0
 46 26  1  0
 45 29  1  0
 39 33  1  0
M  CHG  1  16   1
M  END

