
     RDKit          3D

 49 53  0  0  0  0  0  0  0  0999 V2000
    3.9661    1.0167    1.2144 C   0  0  0  0  0  0  0  0  0  0  0  0
    4.1561   -0.4520    1.9661 C   0  0  2  0  0  0  0  0  0  0  0  0
    5.7873   -0.5745    1.7516 C   0  0  0  0  0  0  0  0  0  0  0  0
    6.1170   -0.5574    0.4016 N   0  0  0  0  0  0  0  0  0  0  0  0
    6.2420   -1.5447   -0.4662 N   0  0  0  0  0  0  0  0  0  0  0  0
    6.5788   -1.0530   -1.6758 C   0  0  0  0  0  0  0  0  0  0  0  0
    6.6609    0.2759   -1.5371 N   0  0  0  0  0  0  0  0  0  0  0  0
    6.3847    0.5550   -0.3011 N   0  0  0  0  0  0  0  0  0  0  0  0
    3.8136   -1.2722    0.6586 N   0  0  0  0  0  0  0  0  0  0  0  0
    2.4952   -0.9835    0.1613 C   0  0  0  0  0  0  0  0  0  0  0  0
    2.0792   -1.6110   -0.9415 N   0  0  0  0  0  0  0  0  0  0  0  0
    0.8770   -1.4351   -1.5100 C   0  0  0  0  0  0  0  0  0  0  0  0
    0.0005   -0.5320   -0.9047 C   0  0  0  0  0  0  0  0  0  0  0  0
   -1.2567   -0.3063   -1.4442 C   0  0  0  0  0  0  0  0  0  0  0  0
   -2.0767    0.5943   -0.8046 C   0  0  0  0  0  0  0  0  0  0  0  0
   -3.3369    0.8454   -1.3128 O   0  0  0  0  0  0  0  0  0  0  0  0
   -4.4993    0.6159   -0.5935 C   0  0  0  0  0  0  0  0  0  0  0  0
   -5.3428    1.6760   -0.3384 C   0  0  0  0  0  0  0  0  0  0  0  0
   -6.5084    1.4993    0.3712 C   0  0  0  0  0  0  0  0  0  0  0  0
   -6.8854    0.2605    0.8578 C   0  0  0  0  0  0  0  0  0  0  0  0
   -8.0355    0.0989    1.5553 F   0  0  0  0  0  0  0  0  0  0  0  0
   -6.0237   -0.7870    0.5895 C   0  0  0  0  0  0  0  0  0  0  0  0
   -4.8537   -0.6248   -0.1195 C   0  0  0  0  0  0  0  0  0  0  0  0
   -4.0201   -1.6729   -0.3715 F   0  0  0  0  0  0  0  0  0  0  0  0
   -1.6137    1.2218    0.3293 C   0  0  0  0  0  0  0  0  0  0  0  0
   -2.4121    2.0453    0.8819 O   0  0  0  0  0  0  0  0  0  0  0  0
   -0.3854    0.9939    0.8468 N   0  0  0  0  0  0  0  0  0  0  0  0
    0.0095    1.7047    2.0451 C   0  0  0  0  0  0  0  0  0  0  0  0
    0.4269    0.1185    0.2352 C   0  0  0  0  0  0  0  0  0  0  0  0
    1.6556   -0.1158    0.7446 N   0  0  0  0  0  0  0  0  0  0  0  0
   -0.7215   -1.7889   -0.7802 O   0  0  0  0  0  0  0  0  0  0  0  0
    0.0282   -1.6544    0.2160 C   0  0  0  0  0  0  0  0  0  0  0  0
   -0.4337   -1.6714    1.6131 C   0  0  0  0  0  0  0  0  0  0  0  0
   -1.8934   -1.7864    1.7503 C   0  0  0  0  0  0  0  0  0  0  0  0
   -2.5888   -0.6329    1.1293 C   0  0  0  0  0  0  0  0  0  0  0  0
   -3.0463   -0.6022   -0.1676 C   0  0  0  0  0  0  0  0  0  0  0  0
   -3.6849    0.5001   -0.6853 C   0  0  0  0  0  0  0  0  0  0  0  0
   -3.9033    1.6311    0.0573 C   0  0  0  0  0  0  0  0  0  0  0  0
   -4.5520    2.7514   -0.4678 O   0  0  0  0  0  0  0  0  0  0  0  0
   -3.4589    1.6370    1.3609 C   0  0  0  0  0  0  0  0  0  0  0  0
   -2.8237    0.5358    1.8699 C   0  0  0  0  0  0  0  0  0  0  0  0
    1.4199   -1.4753   -0.0920 N   0  0  0  0  0  0  0  0  0  0  0  0
    1.9018   -1.4545   -1.4596 C   0  0  0  0  0  0  0  0  0  0  0  0
    3.4029   -1.2486   -1.4039 C   0  0  0  0  0  0  0  0  0  0  0  0
    3.7778    0.0162   -0.7405 C   0  0  0  0  0  0  0  0  0  0  0  0
    3.9320    1.2084   -1.4237 C   0  0  0  0  0  0  0  0  0  0  0  0
    4.2748    2.1569   -0.5214 N   0  0  0  0  0  0  0  0  0  0  0  0
    4.3385    1.5936    0.6985 C   0  0  0  0  0  0  0  0  0  0  0  0
    4.0306    0.2842    0.5385 N   0  0  0  0  0  0  0  0  0  0  0  0
  2  1  1  6
  2  3  1  0
  3  4  1  0
  4  5  1  0
  5  6  2  0
  6  7  1  0
  7  8  2  0
  2  9  1  0
  9 10  1  0
 10 11  2  0
 11 12  1  0
 12 13  2  0
 13 14  1  0
 14 15  2  0
 15 16  1  0
 16 17  1  0
 17 18  2  0
 18 19  1  0
 19 20  2  0
 20 21  1  0
 20 22  1  0
 22 23  2  0
 23 24  1  0
 15 25  1  0
 25 26  2  0
 25 27  1  0
 27 28  1  0
 27 29  1  0
 29 30  2  0
 31 32  2  0
 32 33  1  0
 33 34  1  0
 34 35  1  0
 35 36  2  0
 36 37  1  0
 37 38  2  0
 38 39  1  0
 38 40  1  0
 40 41  2  0
 32 42  1  0
 42 43  1  0
 43 44  1  0
 44 45  1  0
 45 46  2  0
 46 47  1  0
 47 48  1  0
 48 49  2  0
  8  4  1  0
 30 10  1  0
 41 35  1  0
 49 45  1  0
 29 13  1  0
 23 17  1  0
M  END

