
     RDKit          3D

 45 47  0  0  0  0  0  0  0  0999 V2000
   -5.6184    0.1743   -0.5088 C   0  0  0  0  0  0  0  0  0  0  0  0
   -3.9694    0.4572   -0.6360 C   0  0  1  0  0  0  0  0  0  0  0  0
   -4.0584    1.7031    0.2671 O   0  0  0  0  0  0  0  0  0  0  0  0
   -3.6487   -0.5453    0.6875 C   0  0  0  0  0  0  0  0  0  0  0  0
   -2.4195    0.0686    1.1731 N   0  0  0  0  0  0  0  0  0  0  0  0
   -1.2668    0.1595    0.3763 C   0  0  0  0  0  0  0  0  0  0  0  0
   -1.3060   -0.3009   -0.7776 O   0  0  0  0  0  0  0  0  0  0  0  0
   -0.0418    0.8079    0.9549 C   0  0  0  0  0  0  0  0  0  0  0  0
    1.0828    0.7954   -0.0838 C   0  0  0  0  0  0  0  0  0  0  0  0
    1.3910   -0.6318   -0.4546 C   0  0  0  0  0  0  0  0  0  0  0  0
    2.4860   -0.6942   -1.4690 C   0  0  0  0  0  0  0  0  0  0  0  0
    3.6608   -0.0947   -0.9312 N   0  0  0  0  0  0  0  0  0  0  0  0
    4.3432   -0.5276    0.2375 C   0  0  0  0  0  0  0  0  0  0  0  0
    5.4915    0.1749    0.6355 N   0  0  0  0  0  0  0  0  0  0  0  0
    3.8737   -1.5463    0.8764 N   0  0  0  0  0  4  0  0  0  0  0  0
    3.6921    2.1259   -1.9974 C   0  0  0  0  0  0  0  0  0  0  0  0
    4.6839    1.4318   -0.8650 C   0  0  2  0  0  0  0  0  0  0  0  0
    4.0209   -0.0635   -1.0634 C   0  0  0  0  0  0  0  0  0  0  0  0
    4.7230   -0.9193   -0.1578 N   0  0  0  0  0  0  0  0  0  0  0  0
    5.8213   -1.5800   -0.4809 N   0  0  0  0  0  0  0  0  0  0  0  0
    6.1945   -2.2693    0.6018 C   0  0  0  0  0  0  0  0  0  0  0  0
    5.2853   -1.9948    1.5684 N   0  0  0  0  0  0  0  0  0  0  0  0
    4.3729   -1.1555    1.0916 N   0  0  0  0  0  0  0  0  0  0  0  0
    3.8150    1.7861    0.3856 N   0  0  0  0  0  0  0  0  0  0  0  0
    2.4820    1.4192    0.4713 C   0  0  0  0  0  0  0  0  0  0  0  0
    1.6720    1.6760    1.5022 N   0  0  0  0  0  0  0  0  0  0  0  0
    0.3976    1.2595    1.4300 C   0  0  0  0  0  0  0  0  0  0  0  0
   -0.1339    0.5809    0.3574 C   0  0  0  0  0  0  0  0  0  0  0  0
   -1.4396    0.1491    0.2730 C   0  0  0  0  0  0  0  0  0  0  0  0
   -1.9116   -0.5301   -0.8376 C   0  0  0  0  0  0  0  0  0  0  0  0
   -3.2247   -0.9714   -0.9370 O   0  0  0  0  0  0  0  0  0  0  0  0
   -4.0704   -0.7069    0.1321 C   0  0  0  0  0  0  0  0  0  0  0  0
   -3.6493   -0.0327    1.2636 C   0  0  0  0  0  0  0  0  0  0  0  0
   -4.5361    0.1987    2.2898 C   0  0  0  0  0  0  0  0  0  0  0  0
   -5.8507   -0.2142    2.2499 C   0  0  0  0  0  0  0  0  0  0  0  0
   -6.6653    0.0448    3.2883 F   0  0  0  0  0  0  0  0  0  0  0  0
   -6.2507   -0.8873    1.1075 C   0  0  0  0  0  0  0  0  0  0  0  0
   -5.3895   -1.1370    0.0594 C   0  0  0  0  0  0  0  0  0  0  0  0
   -5.8650   -1.8024   -1.0204 F   0  0  0  0  0  0  0  0  0  0  0  0
   -1.0102   -0.7561   -1.8614 C   0  0  0  0  0  0  0  0  0  0  0  0
   -1.3470   -1.3612   -2.9025 O   0  0  0  0  0  0  0  0  0  0  0  0
    0.2862   -0.3295   -1.7820 N   0  0  0  0  0  0  0  0  0  0  0  0
    1.1933   -0.5916   -2.8838 C   0  0  0  0  0  0  0  0  0  0  0  0
    0.7299    0.3284   -0.6978 C   0  0  0  0  0  0  0  0  0  0  0  0
    1.9742    0.7556   -0.5850 N   0  0  0  0  0  0  0  0  0  0  0  0
  2  1  1  1
  2  3  1  0
  2  4  1  0
  4  5  1  0
  5  6  1  0
  6  7  2  0
  6  8  1  0
  8  9  1  0
  9 10  1  0
 10 11  1  0
 11 12  1  0
 12 13  1  0
 13 14  1  0
 13 15  2  0
 17 16  1  6
 17 18  1  0
 18 19  1  0
 19 20  1  0
 20 21  2  0
 21 22  1  0
 22 23  2  0
 17 24  1  0
 24 25  1  0
 25 26  2  0
 26 27  1  0
 27 28  2  0
 28 29  1  0
 29 30  2  0
 30 31  1  0
 31 32  1  0
 32 33  2  0
 33 34  1  0
 34 35  2  0
 35 36  1  0
 35 37  1  0
 37 38  2  0
 38 39  1  0
 30 40  1  0
 40 41  2  0
 40 42  1  0
 42 43  1  0
 42 44  1  0
 44 45  2  0
 23 19  1  0
 45 25  1  0
 44 28  1  0
 38 32  1  0
M  CHG  1  15   1
M  END

