
     RDKit          3D

  9  9  0  0  0  0  0  0  0  0999 V2000
   -2.7932    0.7359   -0.8562 C   0  0  0  0  0  0  0  0  0  0  0  0
   -1.9029   -0.4854   -1.1225 C   0  0  0  0  0  0  0  0  0  0  0  0
   -1.0091   -0.5866    0.0780 C   0  0  0  0  0  0  0  0  0  0  0  0
   -1.5525   -1.0449    1.1252 O   0  0  0  0  0  0  0  0  0  0  0  0
    0.3447   -0.1994    0.0508 N   0  0  0  0  0  0  0  0  0  0  0  0
    1.0465    0.3330   -1.0994 C   0  0  0  0  0  0  0  0  0  0  0  0
    2.0986    1.2114   -0.4085 C   0  0  0  0  0  0  0  0  0  0  0  0
    2.5264    0.3139    0.7152 C   0  0  0  0  0  0  0  0  0  0  0  0
    1.2415   -0.2778    1.1876 C   0  0  0  0  0  0  0  0  0  0  0  0
  1  2  1  0
  2  3  1  0
  3  4  2  0
  3  5  1  0
  5  6  1  0
  6  7  1  0
  7  8  1  0
  8  9  1  0
  9  5  1  0
M  END

