
     RDKit          3D

 15 14  0  0  0  0  0  0  0  0999 V2000
   -2.1392    1.8457    0.1972 N   0  0  0  0  0  4  0  0  0  0  0  0
   -3.5666    1.8710    0.0521 C   0  0  0  0  0  0  0  0  0  0  0  0
   -4.2218    0.5785    0.3451 C   0  0  0  0  0  0  0  0  0  0  0  0
   -3.8572   -0.5901   -0.4638 C   0  0  0  0  0  0  0  0  0  0  0  0
   -2.4593   -1.0665   -0.4611 C   0  0  0  0  0  0  0  0  0  0  0  0
   -2.0127   -1.4587    0.8999 C   0  0  0  0  0  0  0  0  0  0  0  0
   -0.6754   -1.9728    0.9970 N   0  0  0  0  0  0  0  0  0  0  0  0
    0.4627   -1.2385    0.6208 C   0  0  0  0  0  0  0  0  0  0  0  0
    0.2984   -0.0743    0.1767 O   0  0  0  0  0  0  0  0  0  0  0  0
    1.8522   -1.8253    0.7435 C   0  0  0  0  0  0  0  0  0  0  0  0
    2.8182   -0.7897    0.2626 C   0  0  0  0  0  0  0  0  0  0  0  0
    2.7288    0.4910    1.0941 C   0  0  0  0  0  0  0  0  0  0  0  0
    3.6929    1.5217    0.6125 C   0  0  0  0  0  0  0  0  0  0  0  0
    3.4710    1.9309   -0.8177 C   0  0  0  0  0  0  0  0  0  0  0  0
    3.6078    0.7772   -1.6821 N   0  0  0  0  0  4  0  0  0  0  0  0
  1  2  1  0
  2  3  1  0
  3  4  1  0
  4  5  1  0
  5  6  1  0
  6  7  1  0
  7  8  1  0
  8  9  2  0
  8 10  1  0
 10 11  1  0
 11 12  1  0
 12 13  1  0
 13 14  1  0
 14 15  1  0
M  CHG  2   1   1  15   1
M  END

