
     RDKit          3D

 11 10  0  0  0  0  0  0  0  0999 V2000
   -3.6511   -0.5051   -1.4615 C   0  0  0  0  0  0  0  0  0  0  0  0
   -2.9116    0.7389   -1.0194 C   0  0  0  0  0  0  0  0  0  0  0  0
   -1.9504    0.3780    0.0784 C   0  0  0  0  0  0  0  0  0  0  0  0
   -1.8480   -0.7988    0.4967 O   0  0  0  0  0  0  0  0  0  0  0  0
   -1.1171    1.3496    0.6901 N   0  0  0  0  0  0  0  0  0  0  0  0
   -0.1800    1.0534    1.7457 C   0  0  0  0  0  0  0  0  0  0  0  0
    0.8619    0.0644    1.3661 C   0  0  0  0  0  0  0  0  0  0  0  0
    1.7222    0.4670    0.2205 C   0  0  0  0  0  0  0  0  0  0  0  0
    2.7033   -0.6086   -0.0384 C   0  0  0  0  0  0  0  0  0  0  0  0
    3.6776   -0.5075   -1.0939 N   0  0  0  0  0  0  0  0  0  0  0  0
    2.6932   -1.6314    0.6702 O   0  0  0  0  0  0  0  0  0  0  0  0
  1  2  1  0
  2  3  1  0
  3  4  2  0
  3  5  1  0
  5  6  1  0
  6  7  1  0
  7  8  1  0
  8  9  1  0
  9 10  1  0
  9 11  2  0
M  END

