
     RDKit          3D

 13 12  0  0  0  0  0  0  0  0999 V2000
    3.8042    0.6262    0.9424 C   0  0  0  0  0  0  0  0  0  0  0  0
    3.1672   -0.1963   -0.1433 C   0  0  0  0  0  0  0  0  0  0  0  0
    4.2348   -0.8351   -0.9890 C   0  0  0  0  0  0  0  0  0  0  0  0
    2.2691    0.6412   -1.0269 C   0  0  0  0  0  0  0  0  0  0  0  0
    1.1556    1.2801   -0.2511 C   0  0  0  0  0  0  0  0  0  0  0  0
    0.2809    0.2658    0.4168 C   0  0  0  0  0  0  0  0  0  0  0  0
    0.4695   -0.9632    0.3286 O   0  0  0  0  0  0  0  0  0  0  0  0
   -0.8044    0.7314    1.1792 N   0  0  0  0  0  0  0  0  0  0  0  0
   -1.7342   -0.1285    1.8808 C   0  0  0  0  0  0  0  0  0  0  0  0
   -2.4479   -1.0549    0.9467 C   0  0  0  0  0  0  0  0  0  0  0  0
   -3.2316   -0.3176   -0.0812 C   0  0  0  0  0  0  0  0  0  0  0  0
   -3.9682   -0.9799   -1.0460 O   0  0  0  0  0  1  0  0  0  0  0  0
   -3.1949    0.9309   -0.0343 O   0  0  0  0  0  0  0  0  0  0  0  0
  1  2  1  0
  2  3  1  0
  2  4  1  0
  4  5  1  0
  5  6  1  0
  6  7  2  0
  6  8  1  0
  8  9  1  0
  9 10  1  0
 10 11  1  0
 11 12  1  0
 11 13  2  0
M  RAD  1  12   2
M  END

