
     RDKit          3D

 43 45  0  0  0  0  0  0  0  0999 V2000
    4.8317    1.2261   -0.7708 C   0  0  0  0  0  0  0  0  0  0  0  0
    3.9383   -0.1410   -1.1186 C   0  0  1  0  0  0  0  0  0  0  0  0
    4.1314   -0.6911    0.2969 O   0  0  0  0  0  0  0  0  0  0  0  0
    2.5153    0.6028   -0.7192 C   0  0  0  0  0  0  0  0  0  0  0  0
    1.7219   -0.5537   -0.2954 N   0  0  0  0  0  0  0  0  0  0  0  0
    0.3947   -0.3448    0.1391 C   0  0  0  0  0  0  0  0  0  0  0  0
   -0.0591    0.8247    0.1472 O   0  0  0  0  0  0  0  0  0  0  0  0
   -0.5048   -1.4259    0.5900 C   0  0  0  0  0  0  0  0  0  0  0  0
   -1.8420   -0.9083    0.9887 C   0  0  0  0  0  0  0  0  0  0  0  0
   -2.5046   -0.2144   -0.1779 C   0  0  0  0  0  0  0  0  0  0  0  0
   -3.8143    0.2867    0.2311 C   0  0  0  0  0  0  0  0  0  0  0  0
   -4.6105    0.9697   -0.7001 N   0  0  0  0  0  0  0  0  0  0  0  0
   -4.1980    0.1006    1.3889 O   0  0  0  0  0  0  0  0  0  0  0  0
    3.4075   -1.1416    1.3800 C   0  0  0  0  0  0  0  0  0  0  0  0
    4.3487   -0.7820    0.0589 C   0  0  2  0  0  0  0  0  0  0  0  0
    5.6770   -0.4441    0.9980 C   0  0  0  0  0  0  0  0  0  0  0  0
    6.7061   -0.0789    0.0155 N   0  0  0  0  0  0  0  0  0  0  0  0
    6.9383    1.1397   -0.4356 N   0  0  0  0  0  0  0  0  0  0  0  0
    7.9463    1.1350   -1.3247 C   0  0  0  0  0  0  0  0  0  0  0  0
    8.3324   -0.1523   -1.4057 N   0  0  0  0  0  0  0  0  0  0  0  0
    7.5731   -0.8659   -0.5912 N   0  0  0  0  0  0  0  0  0  0  0  0
    3.8799    0.7328    0.0378 N   0  0  0  0  0  0  0  0  0  0  0  0
    2.4753    0.8572   -0.1364 C   0  0  0  0  0  0  0  0  0  0  0  0
    1.9774    2.0909   -0.1682 N   0  0  0  0  0  0  0  0  0  0  0  0
    0.6428    2.3295   -0.3307 C   0  0  0  0  0  0  0  0  0  0  0  0
   -0.2350    1.2744   -0.4679 C   0  0  0  0  0  0  0  0  0  0  0  0
   -1.5939    1.4426   -0.6351 C   0  0  0  0  0  0  0  0  0  0  0  0
   -2.4498    0.3459   -0.7706 C   0  0  0  0  0  0  0  0  0  0  0  0
   -3.7865    0.5890   -0.9332 O   0  0  0  0  0  0  0  0  0  0  0  0
   -4.7662    0.1330   -0.0593 C   0  0  0  0  0  0  0  0  0  0  0  0
   -4.4257   -0.6111    1.0503 C   0  0  0  0  0  0  0  0  0  0  0  0
   -5.4032   -1.0651    1.9205 C   0  0  0  0  0  0  0  0  0  0  0  0
   -6.7223   -0.7813    1.6914 C   0  0  0  0  0  0  0  0  0  0  0  0
   -7.7250   -1.2102    2.5267 F   0  0  0  0  0  0  0  0  0  0  0  0
   -7.0878   -0.0448    0.5980 C   0  0  0  0  0  0  0  0  0  0  0  0
   -6.1004    0.4023   -0.2632 C   0  0  0  0  0  0  0  0  0  0  0  0
   -6.4648    1.1256   -1.3362 F   0  0  0  0  0  0  0  0  0  0  0  0
   -1.8786   -0.9078   -0.7300 C   0  0  0  0  0  0  0  0  0  0  0  0
   -2.6465   -1.9203   -0.8522 O   0  0  0  0  0  0  0  0  0  0  0  0
   -0.5505   -1.0451   -0.5658 N   0  0  0  0  0  0  0  0  0  0  0  0
    0.0145   -2.3769   -0.5279 C   0  0  0  0  0  0  0  0  0  0  0  0
    0.2921   -0.0026   -0.4334 C   0  0  0  0  0  0  0  0  0  0  0  0
    1.6248   -0.1680   -0.2694 N   0  0  0  0  0  0  0  0  0  0  0  0
  2  1  1  1
  2  3  1  0
  2  4  1  0
  4  5  1  0
  5  6  1  0
  6  7  2  0
  6  8  1  0
  8  9  1  0
  9 10  1  0
 10 11  1  0
 11 12  1  0
 11 13  2  0
 15 14  1  1
 15 16  1  0
 16 17  1  0
 17 18  1  0
 18 19  2  0
 19 20  1  0
 20 21  2  0
 15 22  1  0
 22 23  1  0
 23 24  2  0
 24 25  1  0
 25 26  2  0
 26 27  1  0
 27 28  2  0
 28 29  1  0
 29 30  1  0
 30 31  2  0
 31 32  1  0
 32 33  2  0
 33 34  1  0
 33 35  1  0
 35 36  2  0
 36 37  1  0
 28 38  1  0
 38 39  2  0
 38 40  1  0
 40 41  1  0
 40 42  1  0
 42 43  2  0
 21 17  1  0
 43 23  1  0
 42 26  1  0
 36 30  1  0
M  END

