
     RDKit          3D

 16 16  0  0  0  0  0  0  0  0999 V2000
    4.1049    1.3245    2.3844 N   0  0  0  0  0  0  0  0  0  0  0  0
    3.9086    0.8719    1.0461 C   0  0  0  0  0  0  0  0  0  0  0  0
    3.7119    1.7415    0.1645 O   0  0  0  0  0  0  0  0  0  0  0  0
    3.9334   -0.5633    0.6966 C   0  0  0  0  0  0  0  0  0  0  0  0
    3.6982   -0.7283   -0.7753 C   0  0  0  0  0  0  0  0  0  0  0  0
    2.3790   -0.1458   -1.0613 N   0  0  0  0  0  0  0  0  0  0  0  0
    1.2050   -0.6501   -0.4374 C   0  0  0  0  0  0  0  0  0  0  0  0
    1.3577   -1.6077    0.3601 O   0  0  0  0  0  0  0  0  0  0  0  0
   -0.1412   -0.1179   -0.6759 C   0  0  0  0  0  0  0  0  0  0  0  0
   -1.1424   -0.8904    0.1502 C   0  0  0  0  0  0  0  0  0  0  0  0
   -2.5253   -0.3868   -0.0577 C   0  0  0  0  0  0  0  0  0  0  0  0
   -3.2914   -0.9423   -1.0598 C   0  0  0  0  0  0  0  0  0  0  0  0
   -4.5818   -0.5393   -1.3248 C   0  0  0  0  0  0  0  0  0  0  0  0
   -5.1330    0.4589   -0.5603 C   0  0  0  0  0  0  0  0  0  0  0  0
   -4.3961    1.0318    0.4446 C   0  0  0  0  0  0  0  0  0  0  0  0
   -3.0874    0.6159    0.7058 C   0  0  0  0  0  0  0  0  0  0  0  0
  1  2  1  0
  2  3  2  0
  2  4  1  0
  4  5  1  0
  5  6  1  0
  6  7  1  0
  7  8  2  0
  7  9  1  0
  9 10  1  0
 10 11  1  0
 11 12  2  0
 12 13  1  0
 13 14  2  0
 14 15  1  0
 15 16  2  0
 16 11  1  0
M  END

