
     RDKit          3D

 41 43  0  0  0  0  0  0  0  0999 V2000
   -3.8080    0.2504   -0.9059 C   0  0  0  0  0  0  0  0  0  0  0  0
   -3.4351   -0.2067    0.4682 C   0  0  0  0  0  0  0  0  0  0  0  0
   -1.9707   -0.9300    0.2251 C   0  0  2  0  0  0  0  0  0  0  0  0
   -1.8031   -1.3207    1.8172 C   0  0  0  0  0  0  0  0  0  0  0  0
   -1.1434    0.4836    0.3912 C   0  0  0  0  0  0  0  0  0  0  0  0
    0.2695    0.0786    0.2054 C   0  0  0  0  0  0  0  0  0  0  0  0
    0.6451   -1.1059   -0.0234 O   0  0  0  0  0  0  0  0  0  0  0  0
    1.2743    1.0603    0.2849 N   0  0  0  0  0  0  0  0  0  0  0  0
    2.6828    0.7561    0.1163 C   0  0  0  0  0  0  0  0  0  0  0  0
    2.9679    0.1609   -1.2447 C   0  0  0  0  0  0  0  0  0  0  0  0
    4.3209   -0.1022   -1.3342 O   0  0  0  0  0  0  0  0  0  0  0  0
   -6.5733   -1.3290   -0.0467 C   0  0  0  0  0  0  0  0  0  0  0  0
   -5.1730   -1.4976    0.8294 C   0  0  2  0  0  0  0  0  0  0  0  0
   -5.1632    0.0255    1.4661 C   0  0  0  0  0  0  0  0  0  0  0  0
   -5.1207    0.9765    0.4363 N   0  0  0  0  0  0  0  0  0  0  0  0
   -4.0899    1.5481   -0.1755 N   0  0  0  0  0  0  0  0  0  0  0  0
   -4.5291    2.4025   -1.1041 C   0  0  0  0  0  0  0  0  0  0  0  0
   -5.8501    2.3642   -1.0718 N   0  0  0  0  0  0  0  0  0  0  0  0
   -6.1943    1.5000   -0.1382 N   0  0  0  0  0  0  0  0  0  0  0  0
   -4.2361   -1.1303   -0.3795 N   0  0  0  0  0  0  0  0  0  0  0  0
   -2.8552   -1.1593   -0.0288 C   0  0  0  0  0  0  0  0  0  0  0  0
   -2.4653   -1.4740    1.2161 N   0  0  0  0  0  0  0  0  0  0  0  0
   -1.1562   -1.4871    1.4947 C   0  0  0  0  0  0  0  0  0  0  0  0
   -0.2036   -1.1795    0.5119 C   0  0  0  0  0  0  0  0  0  0  0  0
    1.1105   -1.1796    0.7443 C   0  0  0  0  0  0  0  0  0  0  0  0
    2.0740   -0.8606   -0.2789 C   0  0  0  0  0  0  0  0  0  0  0  0
    3.3513   -0.9031    0.0970 O   0  0  0  0  0  0  0  0  0  0  0  0
    4.4152   -0.1254    0.2541 C   0  0  0  0  0  0  0  0  0  0  0  0
    4.8649    0.0257    1.6190 C   0  0  0  0  0  0  0  0  0  0  0  0
    5.9242    0.7761    1.9393 C   0  0  0  0  0  0  0  0  0  0  0  0
    6.6623    1.4569    1.0019 C   0  0  0  0  0  0  0  0  0  0  0  0
    7.7444    2.2220    1.3564 F   0  0  0  0  0  0  0  0  0  0  0  0
    6.2791    1.3462   -0.3037 C   0  0  0  0  0  0  0  0  0  0  0  0
    5.1644    0.5564   -0.6450 C   0  0  0  0  0  0  0  0  0  0  0  0
    4.8564    0.4534   -1.9748 F   0  0  0  0  0  0  0  0  0  0  0  0
    1.5599   -0.5579   -1.5059 C   0  0  0  0  0  0  0  0  0  0  0  0
    2.2997   -0.2665   -2.4828 O   0  0  0  0  0  0  0  0  0  0  0  0
    0.2108   -0.5582   -1.7406 N   0  0  0  0  0  0  0  0  0  0  0  0
   -0.2859   -0.2271   -3.0675 C   0  0  0  0  0  0  0  0  0  0  0  0
   -0.6462   -0.8611   -0.7565 C   0  0  0  0  0  0  0  0  0  0  0  0
   -1.9751   -0.8572   -1.0043 N   0  0  0  0  0  0  0  0  0  0  0  0
  1  2  1  0
  2  3  1  0
  3  4  1  1
  3  5  1  0
  5  6  1  0
  6  7  2  0
  6  8  1  0
  8  9  1  0
  9 10  1  0
 10 11  1  0
 13 12  1  6
 13 14  1  0
 14 15  1  0
 15 16  1  0
 16 17  2  0
 17 18  1  0
 18 19  2  0
 13 20  1  0
 20 21  1  0
 21 22  2  0
 22 23  1  0
 23 24  2  0
 24 25  1  0
 25 26  2  0
 26 27  1  0
 27 28  1  0
 28 29  2  0
 29 30  1  0
 30 31  2  0
 31 32  1  0
 31 33  1  0
 33 34  2  0
 34 35  1  0
 26 36  1  0
 36 37  2  0
 36 38  1  0
 38 39  1  0
 38 40  1  0
 40 41  2  0
 19 15  1  0
 41 21  1  0
 40 24  1  0
 34 28  1  0
M  END

