
     RDKit          3D

 42 44  0  0  0  0  0  0  0  0999 V2000
    3.8165   -2.9868    0.0064 C   0  0  0  0  0  0  0  0  0  0  0  0
    4.8597   -1.7045   -0.0309 C   0  0  2  0  0  0  0  0  0  0  0  0
    4.0712   -0.8813    1.1542 C   0  0  0  0  0  0  0  0  0  0  0  0
    4.8634    0.3300    1.2791 N   0  0  0  0  0  0  0  0  0  0  0  0
    4.7442    1.4849    0.6527 N   0  0  0  0  0  0  0  0  0  0  0  0
    5.6913    2.3428    1.0702 C   0  0  0  0  0  0  0  0  0  0  0  0
    6.4104    1.6669    1.9901 N   0  0  0  0  0  0  0  0  0  0  0  0
    5.8919    0.4532    2.0997 N   0  0  0  0  0  0  0  0  0  0  0  0
    4.1128   -0.9900   -1.2075 N   0  0  0  0  0  0  0  0  0  0  0  0
    2.7354   -0.7341   -1.0366 C   0  0  0  0  0  0  0  0  0  0  0  0
    2.0299   -0.1258   -1.9953 N   0  0  0  0  0  0  0  0  0  0  0  0
    0.7182    0.1511   -1.9129 C   0  0  0  0  0  0  0  0  0  0  0  0
    0.0262   -0.2039   -0.7756 C   0  0  0  0  0  0  0  0  0  0  0  0
   -1.3284    0.0573   -0.6367 C   0  0  0  0  0  0  0  0  0  0  0  0
   -1.9838   -0.3145    0.5181 C   0  0  0  0  0  0  0  0  0  0  0  0
   -3.3100   -0.1074    0.7604 O   0  0  0  0  0  0  0  0  0  0  0  0
   -4.2325    0.4828   -0.0452 C   0  0  0  0  0  0  0  0  0  0  0  0
   -3.8934    0.9734   -1.2937 C   0  0  0  0  0  0  0  0  0  0  0  0
   -4.8578    1.5539   -2.0562 C   0  0  0  0  0  0  0  0  0  0  0  0
   -6.1396    1.6546   -1.6048 C   0  0  0  0  0  0  0  0  0  0  0  0
   -7.0984    2.2425   -2.3862 F   0  0  0  0  0  0  0  0  0  0  0  0
   -6.5152    1.1717   -0.3539 C   0  0  0  0  0  0  0  0  0  0  0  0
   -5.5274    0.5769    0.4275 C   0  0  0  0  0  0  0  0  0  0  0  0
   -5.8818    0.0957    1.6634 F   0  0  0  0  0  0  0  0  0  0  0  0
   -1.2234   -0.9401    1.4858 C   0  0  0  0  0  0  0  0  0  0  0  0
   -1.7723   -1.2960    2.5500 O   0  0  0  0  0  0  0  0  0  0  0  0
    0.0935   -1.1863    1.3336 N   0  0  0  0  0  0  0  0  0  0  0  0
    0.8785   -1.8528    2.3777 C   0  0  0  0  0  0  0  0  0  0  0  0
    0.7541   -0.8320    0.2143 C   0  0  0  0  0  0  0  0  0  0  0  0
    2.0668   -1.0822    0.0734 N   0  0  0  0  0  0  0  0  0  0  0  0
    3.3656    1.5527   -1.7211 N   0  0  0  0  0  0  0  0  0  0  0  0
    2.8793    0.9866   -0.5140 C   0  0  0  0  0  0  0  0  0  0  0  0
    3.7116    0.4948    0.2841 O   0  0  0  0  0  0  0  0  0  0  0  0
    1.4460    0.9485   -0.1530 C   0  0  0  0  0  0  0  0  0  0  0  0
    1.2809    0.2789    1.1923 C   0  0  0  0  0  0  0  0  0  0  0  0
   -0.1717    0.2139    1.6100 C   0  0  0  0  0  0  0  0  0  0  0  0
   -0.9059   -0.5734    0.5712 C   0  0  0  0  0  0  0  0  0  0  0  0
   -0.3066   -1.0462   -0.4287 O   0  0  0  0  0  0  0  0  0  0  0  0
   -2.2985   -0.8249    0.6579 N   0  0  0  0  0  0  0  0  0  0  0  0
   -2.9380   -1.5959   -0.3882 C   0  0  0  0  0  0  0  0  0  0  0  0
   -2.7334   -0.8474   -1.7004 C   0  0  0  0  0  0  0  0  0  0  0  0
   -3.3291    0.4122   -1.5505 O   0  0  0  0  0  0  0  0  0  0  0  0
  2  1  1  1
  2  3  1  0
  3  4  1  0
  4  5  1  0
  5  6  2  0
  6  7  1  0
  7  8  2  0
  2  9  1  0
  9 10  1  0
 10 11  2  0
 11 12  1  0
 12 13  2  0
 13 14  1  0
 14 15  2  0
 15 16  1  0
 16 17  1  0
 17 18  2  0
 18 19  1  0
 19 20  2  0
 20 21  1  0
 20 22  1  0
 22 23  2  0
 23 24  1  0
 15 25  1  0
 25 26  2  0
 25 27  1  0
 27 28  1  0
 27 29  1  0
 29 30  2  0
 31 32  1  0
 32 33  2  0
 32 34  1  0
 34 35  1  0
 35 36  1  0
 36 37  1  0
 37 38  2  0
 37 39  1  0
 39 40  1  0
 40 41  1  0
 41 42  1  0
  8  4  1  0
 30 10  1  0
 29 13  1  0
 23 17  1  0
M  END

