
     RDKit          3D

 16 16  0  0  0  0  0  0  0  0999 V2000
   -3.1663    2.4290    0.9896 O   0  0  0  0  0  1  0  0  0  0  0  0
   -3.2312    1.1644    0.4129 C   0  0  0  0  0  0  0  0  0  0  0  0
   -3.2098    1.1066   -0.8235 O   0  0  0  0  0  0  0  0  0  0  0  0
   -3.3198   -0.0375    1.2446 C   0  0  0  0  0  0  0  0  0  0  0  0
   -2.0326   -0.7307    1.5127 C   0  0  0  0  0  0  0  0  0  0  0  0
   -1.3210   -1.2180    0.3118 C   0  0  0  0  0  0  0  0  0  0  0  0
   -1.7753   -1.0749   -0.8475 O   0  0  0  0  0  0  0  0  0  0  0  0
   -0.0734   -1.8723    0.5005 N   0  0  0  0  0  0  0  0  0  0  0  0
    0.7232   -2.3940   -0.5680 C   0  0  0  0  0  0  0  0  0  0  0  0
    1.1581   -1.3672   -1.5704 C   0  0  0  0  0  0  0  0  0  0  0  0
    1.9748   -0.3288   -0.8637 C   0  0  0  0  0  0  0  0  0  0  0  0
    3.3402   -0.4211   -0.7230 C   0  0  0  0  0  0  0  0  0  0  0  0
    4.0680    0.5522   -0.0659 C   0  0  0  0  0  0  0  0  0  0  0  0
    3.4422    1.6554    0.4734 C   0  0  0  0  0  0  0  0  0  0  0  0
    2.0743    1.7591    0.3388 C   0  0  0  0  0  0  0  0  0  0  0  0
    1.3487    0.7776   -0.3225 C   0  0  0  0  0  0  0  0  0  0  0  0
  1  2  1  0
  2  3  2  0
  2  4  1  0
  4  5  1  0
  5  6  1  0
  6  7  2  0
  6  8  1  0
  8  9  1  0
  9 10  1  0
 10 11  1  0
 11 12  2  0
 12 13  1  0
 13 14  2  0
 14 15  1  0
 15 16  2  0
 16 11  1  0
M  RAD  1   1   2
M  END

