
     RDKit          3D

 18 18  0  0  0  0  0  0  0  0999 V2000
    5.1914    2.8062   -0.9746 N   0  0  0  0  0  0  0  0  0  0  0  0
    5.0451    1.3993   -0.8223 C   0  0  0  0  0  0  0  0  0  0  0  0
    6.0365    0.6258   -1.0483 O   0  0  0  0  0  0  0  0  0  0  0  0
    3.7203    0.8783   -0.3986 C   0  0  0  0  0  0  0  0  0  0  0  0
    3.7882   -0.6457   -0.2988 C   0  0  0  0  0  0  0  0  0  0  0  0
    2.4489   -1.1989    0.1316 C   0  0  0  0  0  0  0  0  0  0  0  0
    1.4826   -0.8010   -0.8741 N   0  0  0  0  0  0  0  0  0  0  0  0
    0.0978   -1.1599   -0.7811 C   0  0  0  0  0  0  0  0  0  0  0  0
   -0.2355   -1.8361    0.2154 O   0  0  0  0  0  0  0  0  0  0  0  0
   -0.7953   -0.7041   -1.8560 C   0  0  0  0  0  0  0  0  0  0  0  0
   -2.2071   -1.0898   -1.6451 C   0  0  0  0  0  0  0  0  0  0  0  0
   -2.7819   -0.5217   -0.4065 C   0  0  0  0  0  0  0  0  0  0  0  0
   -2.7847   -1.1306    0.8218 C   0  0  0  0  0  0  0  0  0  0  0  0
   -3.3318   -0.5671    1.9556 C   0  0  0  0  0  0  0  0  0  0  0  0
   -3.9132    0.6692    1.8861 C   0  0  0  0  0  0  0  0  0  0  0  0
   -4.4591    1.2276    3.0249 O   0  0  0  0  0  0  0  0  0  0  0  0
   -3.9255    1.3095    0.6574 C   0  0  0  0  0  0  0  0  0  0  0  0
   -3.3768    0.7390   -0.4686 C   0  0  0  0  0  0  0  0  0  0  0  0
  1  2  1  0
  2  3  2  0
  2  4  1  0
  4  5  1  0
  5  6  1  0
  6  7  1  0
  7  8  1  0
  8  9  2  0
  8 10  1  0
 10 11  1  0
 11 12  1  0
 12 13  2  0
 13 14  1  0
 14 15  2  0
 15 16  1  0
 15 17  1  0
 17 18  2  0
 18 12  1  0
M  END

