
     RDKit          3D

 46 49  0  0  0  0  0  0  0  0999 V2000
    4.5092   -1.1676    1.4260 C   0  0  0  0  0  0  0  0  0  0  0  0
    3.2342   -0.5189    0.9779 C   0  0  0  0  0  0  0  0  0  0  0  0
    3.3981    0.9832    0.9696 C   0  0  0  0  0  0  0  0  0  0  0  0
    2.8331   -1.0813   -0.3366 C   0  0  0  0  0  0  0  0  0  0  0  0
    1.5742   -0.4981   -0.8670 C   0  0  0  0  0  0  0  0  0  0  0  0
    1.0242    0.3697   -0.1605 O   0  0  0  0  0  0  0  0  0  0  0  0
    0.9844   -0.8515   -2.0746 N   0  0  0  0  0  0  0  0  0  0  0  0
   -0.1831   -0.4248   -2.7124 C   0  0  0  0  0  0  0  0  0  0  0  0
   -1.5111   -0.6168   -2.2107 C   0  0  0  0  0  0  0  0  0  0  0  0
   -1.8450   -0.0642   -0.9028 C   0  0  0  0  0  0  0  0  0  0  0  0
   -1.8040   -0.8370    0.2674 C   0  0  0  0  0  0  0  0  0  0  0  0
   -2.1279   -0.2710    1.4797 C   0  0  0  0  0  0  0  0  0  0  0  0
   -2.4997    1.0516    1.6011 C   0  0  0  0  0  0  0  0  0  0  0  0
   -2.8184    1.5862    2.8363 O   0  0  0  0  0  0  0  0  0  0  0  0
   -2.5455    1.8283    0.4570 C   0  0  0  0  0  0  0  0  0  0  0  0
   -2.2229    1.2646   -0.7502 C   0  0  0  0  0  0  0  0  0  0  0  0
    4.2072   -0.9721    0.8846 C   0  0  0  0  0  0  0  0  0  0  0  0
    4.8428   -0.6735   -0.6187 C   0  0  2  0  0  0  0  0  0  0  0  0
    5.9979    0.3613   -0.0077 C   0  0  0  0  0  0  0  0  0  0  0  0
    6.7335   -0.4969    0.8975 N   0  0  0  0  0  0  0  0  0  0  0  0
    7.7766   -1.2035    0.5462 N   0  0  0  0  0  0  0  0  0  0  0  0
    8.2475   -1.8996    1.5958 C   0  0  0  0  0  0  0  0  0  0  0  0
    7.4462   -1.5939    2.6251 N   0  0  0  0  0  0  0  0  0  0  0  0
    6.5339   -0.7400    2.1767 N   0  0  0  0  0  0  0  0  0  0  0  0
    3.8268    0.5047   -0.9048 N   0  0  0  0  0  0  0  0  0  0  0  0
    2.4618    0.0386   -0.8663 C   0  0  0  0  0  0  0  0  0  0  0  0
    2.1312   -1.2413   -0.6161 N   0  0  0  0  0  0  0  0  0  0  0  0
    0.8775   -1.6585   -0.5831 C   0  0  0  0  0  0  0  0  0  0  0  0
   -0.1570   -0.7912   -0.8058 C   0  0  0  0  0  0  0  0  0  0  0  0
   -1.5030   -1.1982   -0.7787 C   0  0  0  0  0  0  0  0  0  0  0  0
   -2.5099   -0.2949   -1.0078 C   0  0  0  0  0  0  0  0  0  0  0  0
   -3.8163   -0.6981   -0.9798 O   0  0  0  0  0  0  0  0  0  0  0  0
   -4.7694   -0.1927   -0.1106 C   0  0  0  0  0  0  0  0  0  0  0  0
   -4.4036    0.7809    0.7951 C   0  0  0  0  0  0  0  0  0  0  0  0
   -5.3243    1.3233    1.6922 C   0  0  0  0  0  0  0  0  0  0  0  0
   -6.6090    0.8740    1.6637 C   0  0  0  0  0  0  0  0  0  0  0  0
   -7.4969    1.4133    2.5460 F   0  0  0  0  0  0  0  0  0  0  0  0
   -6.9640   -0.0947    0.7593 C   0  0  0  0  0  0  0  0  0  0  0  0
   -6.0529   -0.6429   -0.1405 C   0  0  0  0  0  0  0  0  0  0  0  0
   -6.3987   -1.5984   -1.0341 F   0  0  0  0  0  0  0  0  0  0  0  0
   -2.1735    1.0097   -1.2627 C   0  0  0  0  0  0  0  0  0  0  0  0
   -3.1073    1.8242   -1.4703 O   0  0  0  0  0  0  0  0  0  0  0  0
   -0.8597    1.4000   -1.2877 N   0  0  0  0  0  0  0  0  0  0  0  0
   -0.5154    2.7808   -1.5581 C   0  0  0  0  0  0  0  0  0  0  0  0
    0.1451    0.5342   -1.0666 C   0  0  0  0  0  0  0  0  0  0  0  0
    1.4333    0.8757   -1.0825 N   0  0  0  0  0  0  0  0  0  0  0  0
  1  2  1  0
  2  3  1  0
  2  4  1  0
  4  5  1  0
  5  6  2  0
  5  7  1  0
  7  8  1  0
  8  9  1  0
  9 10  1  0
 10 11  2  0
 11 12  1  0
 12 13  2  0
 13 14  1  0
 13 15  1  0
 15 16  2  0
 18 17  1  1
 18 19  1  0
 19 20  1  0
 20 21  1  0
 21 22  2  0
 22 23  1  0
 23 24  2  0
 18 25  1  0
 25 26  1  0
 26 27  2  0
 27 28  1  0
 28 29  2  0
 29 30  1  0
 30 31  2  0
 31 32  1  0
 32 33  1  0
 33 34  2  0
 34 35  1  0
 35 36  2  0
 36 37  1  0
 36 38  1  0
 38 39  2  0
 39 40  1  0
 31 41  1  0
 41 42  2  0
 41 43  1  0
 43 44  1  0
 43 45  1  0
 45 46  2  0
 16 10  1  0
 24 20  1  0
 46 26  1  0
 45 29  1  0
 39 33  1  0
M  END

