
     RDKit          3D

  9  8  0  0  0  0  0  0  0  0999 V2000
    3.7304   -0.5342    0.4996 C   0  0  0  0  0  0  0  0  0  0  0  0
    2.4222   -0.8863   -0.0542 N   0  0  0  0  0  0  0  0  0  0  0  0
    1.3564    0.0528   -0.1307 C   0  0  0  0  0  0  0  0  0  0  0  0
    1.5886    1.2101    0.3023 O   0  0  0  0  0  0  0  0  0  0  0  0
    0.0308   -0.3113   -0.6941 C   0  0  0  0  0  0  0  0  0  0  0  0
   -0.8529    0.9098   -0.6221 C   0  0  0  0  0  0  0  0  0  0  0  0
   -2.2191    0.5311   -1.2041 C   0  0  0  0  0  0  0  0  0  0  0  0
   -2.8715   -0.8302   -0.1803 S   0  0  0  0  0  0  0  0  0  0  0  0
   -3.1848   -0.1418    1.4770 C   0  0  0  0  0  0  0  0  0  0  0  0
  1  2  1  0
  2  3  1  0
  3  4  2  0
  3  5  1  0
  5  6  1  0
  6  7  1  0
  7  8  1  0
  8  9  1  0
M  END

