
     RDKit          3D

 44 46  0  0  0  0  0  0  0  0999 V2000
   -4.5132   -1.9296    1.0828 C   0  0  0  0  0  0  0  0  0  0  0  0
   -4.8102   -0.7347    0.1979 C   0  0  0  0  0  0  0  0  0  0  0  0
   -3.3769    0.0825    0.2386 C   0  0  2  0  0  0  0  0  0  0  0  0
   -3.9534    1.2820   -0.7596 C   0  0  0  0  0  0  0  0  0  0  0  0
   -2.7552   -0.7825   -1.0207 C   0  0  0  0  0  0  0  0  0  0  0  0
   -1.4453   -0.2821   -1.2416 N   0  0  0  0  0  0  0  0  0  0  0  0
   -0.3849   -0.2783   -0.3202 C   0  0  0  0  0  0  0  0  0  0  0  0
   -0.5847   -0.7549    0.8108 O   0  0  0  0  0  0  0  0  0  0  0  0
    0.9279    0.3007   -0.7541 C   0  0  0  0  0  0  0  0  0  0  0  0
    1.8757    0.1736    0.4266 C   0  0  0  0  0  0  0  0  0  0  0  0
    3.2324    0.7458    0.0497 C   0  0  0  0  0  0  0  0  0  0  0  0
    4.1299    0.5892    1.2672 C   0  0  0  0  0  0  0  0  0  0  0  0
    5.5187    1.1423    0.9711 C   0  0  0  0  0  0  0  0  0  0  0  0
    6.1393    0.4459   -0.1401 N   0  0  0  0  0  4  0  0  0  0  0  0
    6.0123    0.0737   -1.5874 C   0  0  0  0  0  0  0  0  0  0  0  0
    4.4608    0.6537   -1.5352 C   0  0  2  0  0  0  0  0  0  0  0  0
    4.6874    1.5161   -0.1496 C   0  0  0  0  0  0  0  0  0  0  0  0
    5.0709    0.6223    0.8792 N   0  0  0  0  0  0  0  0  0  0  0  0
    4.3815   -0.0716    1.7611 N   0  0  0  0  0  0  0  0  0  0  0  0
    5.1995   -0.7931    2.5487 C   0  0  0  0  0  0  0  0  0  0  0  0
    6.4434   -0.5213    2.1213 N   0  0  0  0  0  0  0  0  0  0  0  0
    6.3346    0.3160    1.1364 N   0  0  0  0  0  0  0  0  0  0  0  0
    3.8932   -0.6259   -0.8067 N   0  0  0  0  0  0  0  0  0  0  0  0
    2.4689   -0.5342   -0.5494 C   0  0  0  0  0  0  0  0  0  0  0  0
    1.8280   -1.5405    0.0646 N   0  0  0  0  0  0  0  0  0  0  0  0
    0.5002   -1.4722    0.3128 C   0  0  0  0  0  0  0  0  0  0  0  0
   -0.2313   -0.3605   -0.0614 C   0  0  0  0  0  0  0  0  0  0  0  0
   -1.5839   -0.2970    0.1943 C   0  0  0  0  0  0  0  0  0  0  0  0
   -2.2716    0.8568   -0.2091 C   0  0  0  0  0  0  0  0  0  0  0  0
   -3.6134    0.9728    0.0193 O   0  0  0  0  0  0  0  0  0  0  0  0
   -4.4163    0.0527    0.6265 C   0  0  0  0  0  0  0  0  0  0  0  0
   -5.0872    0.4007    1.7717 C   0  0  0  0  0  0  0  0  0  0  0  0
   -5.9056   -0.5187    2.4013 C   0  0  0  0  0  0  0  0  0  0  0  0
   -6.0395   -1.7851    1.8668 C   0  0  0  0  0  0  0  0  0  0  0  0
   -6.8453   -2.6969    2.4829 F   0  0  0  0  0  0  0  0  0  0  0  0
   -5.3590   -2.1392    0.7044 C   0  0  0  0  0  0  0  0  0  0  0  0
   -4.5463   -1.2105    0.0883 C   0  0  0  0  0  0  0  0  0  0  0  0
   -3.8780   -1.5251   -1.0343 F   0  0  0  0  0  0  0  0  0  0  0  0
   -1.5884    1.8783   -0.8393 C   0  0  0  0  0  0  0  0  0  0  0  0
   -2.2363    2.8981   -1.1874 O   0  0  0  0  0  0  0  0  0  0  0  0
   -0.2477    1.7670   -1.0697 N   0  0  0  0  0  0  0  0  0  0  0  0
    0.3932    2.8822   -1.7356 C   0  0  0  0  0  0  0  0  0  0  0  0
    0.4309    0.6703   -0.6916 C   0  0  0  0  0  0  0  0  0  0  0  0
    1.7452    0.5312   -0.9032 N   0  0  0  0  0  0  0  0  0  0  0  0
  1  2  1  0
  2  3  1  0
  3  4  1  6
  3  5  1  0
  5  6  1  0
  6  7  1  0
  7  8  2  0
  7  9  1  0
  9 10  1  0
 10 11  1  0
 11 12  1  0
 12 13  1  0
 13 14  1  0
 16 15  1  1
 16 17  1  0
 17 18  1  0
 18 19  1  0
 19 20  2  0
 20 21  1  0
 21 22  2  0
 16 23  1  0
 23 24  1  0
 24 25  2  0
 25 26  1  0
 26 27  2  0
 27 28  1  0
 28 29  2  0
 29 30  1  0
 30 31  1  0
 31 32  2  0
 32 33  1  0
 33 34  2  0
 34 35  1  0
 34 36  1  0
 36 37  2  0
 37 38  1  0
 29 39  1  0
 39 40  2  0
 39 41  1  0
 41 42  1  0
 41 43  1  0
 43 44  2  0
 22 18  1  0
 44 24  1  0
 43 27  1  0
 37 31  1  0
M  CHG  1  14   1
M  END

