
     RDKit          3D

 12 11  0  0  0  0  0  0  0  0999 V2000
    3.0544    0.3397    2.7063 O   0  0  0  0  0  1  0  0  0  0  0  0
    3.0292   -0.5877    1.6893 C   0  0  0  0  0  0  0  0  0  0  0  0
    4.0947   -1.2096    1.4157 O   0  0  0  0  0  0  0  0  0  0  0  0
    1.7750   -0.8595    0.9207 C   0  0  0  0  0  0  0  0  0  0  0  0
    1.8797   -0.1332   -0.4227 C   0  0  0  0  0  0  0  0  0  0  0  0
    0.6471   -0.3640   -1.2525 C   0  0  0  0  0  0  0  0  0  0  0  0
   -0.5809    0.1306   -0.5684 C   0  0  0  0  0  0  0  0  0  0  0  0
   -0.4353    0.6439    0.5658 O   0  0  0  0  0  0  0  0  0  0  0  0
   -1.8656    0.0464   -1.1310 N   0  0  0  0  0  0  0  0  0  0  0  0
   -2.9900    0.5640   -0.3677 C   0  0  0  0  0  0  0  0  0  0  0  0
   -4.2835    0.3933   -1.1075 C   0  0  0  0  0  0  0  0  0  0  0  0
   -4.3248    1.0362   -2.3258 O   0  0  0  0  0  0  0  0  0  0  0  0
  1  2  1  0
  2  3  2  0
  2  4  1  0
  4  5  1  0
  5  6  1  0
  6  7  1  0
  7  8  2  0
  7  9  1  0
  9 10  1  0
 10 11  1  0
 11 12  1  0
M  RAD  1   1   2
M  END

