
     RDKit          3D

  9  8  0  0  0  0  0  0  0  0999 V2000
    3.4683    0.3494    0.3746 C   0  0  0  0  0  0  0  0  0  0  0  0
    2.5526   -0.0912   -0.7188 C   0  0  0  0  0  0  0  0  0  0  0  0
    1.1247   -0.2373   -0.2525 C   0  0  0  0  0  0  0  0  0  0  0  0
    0.9556    0.0327    0.9570 O   0  0  0  0  0  0  0  0  0  0  0  0
    0.1015   -0.6414   -1.1216 N   0  0  0  0  0  0  0  0  0  0  0  0
   -1.2298   -0.7812   -0.7219 C   0  0  0  0  0  0  0  0  0  0  0  0
   -1.9974    0.3618   -0.2143 C   0  0  0  0  0  0  0  0  0  0  0  0
   -1.5234    1.0639    0.9982 C   0  0  0  0  0  0  0  0  0  0  0  0
   -3.4520   -0.0569   -0.0708 C   0  0  0  0  0  0  0  0  0  0  0  0
  1  2  1  0
  2  3  1  0
  3  4  2  0
  3  5  1  0
  5  6  1  0
  6  7  1  0
  7  8  1  0
  7  9  1  0
M  END

