
     RDKit          3D

 43 45  0  0  0  0  0  0  0  0999 V2000
   -3.9738    1.4274    0.2492 C   0  0  0  0  0  0  0  0  0  0  0  0
   -4.2757    1.2232   -1.3721 C   0  0  2  0  0  0  0  0  0  0  0  0
   -5.8571    0.8038   -1.0975 C   0  0  0  0  0  0  0  0  0  0  0  0
   -5.8924   -0.3364   -0.2912 N   0  0  0  0  0  0  0  0  0  0  0  0
   -5.9239   -0.3192    1.0332 N   0  0  0  0  0  0  0  0  0  0  0  0
   -5.9532   -1.5663    1.5299 C   0  0  0  0  0  0  0  0  0  0  0  0
   -5.9379   -2.3487    0.4356 N   0  0  0  0  0  0  0  0  0  0  0  0
   -5.9016   -1.6089   -0.6468 N   0  0  0  0  0  0  0  0  0  0  0  0
   -3.6637   -0.2346   -1.3971 N   0  0  0  0  0  0  0  0  0  0  0  0
   -2.2989   -0.1688   -1.0317 C   0  0  0  0  0  0  0  0  0  0  0  0
   -1.5863   -1.3374   -0.9936 N   0  0  0  0  0  0  0  0  0  0  0  0
   -0.2852   -1.3374   -0.6532 C   0  0  0  0  0  0  0  0  0  0  0  0
    0.3956   -0.1872   -0.3290 C   0  0  0  0  0  0  0  0  0  0  0  0
    1.7427   -0.1538    0.0277 C   0  0  0  0  0  0  0  0  0  0  0  0
    2.3244    1.0629    0.3344 C   0  0  0  0  0  0  0  0  0  0  0  0
    3.6759    1.1445    0.6984 O   0  0  0  0  0  0  0  0  0  0  0  0
    4.4457    0.0055    0.7552 C   0  0  0  0  0  0  0  0  0  0  0  0
    5.0508   -0.3763    1.9412 C   0  0  0  0  0  0  0  0  0  0  0  0
    5.8247   -1.5399    1.9572 C   0  0  0  0  0  0  0  0  0  0  0  0
    5.9815   -2.2956    0.8054 C   0  0  0  0  0  0  0  0  0  0  0  0
    6.7362   -3.4337    0.8135 F   0  0  0  0  0  0  0  0  0  0  0  0
    5.3681   -1.8998   -0.3774 C   0  0  0  0  0  0  0  0  0  0  0  0
    4.6067   -0.7587   -0.4018 C   0  0  0  0  0  0  0  0  0  0  0  0
    4.0048   -0.3616   -1.5426 F   0  0  0  0  0  0  0  0  0  0  0  0
    1.5541    2.2054    0.2779 C   0  0  0  0  0  0  0  0  0  0  0  0
    2.0622    3.3102    0.5511 O   0  0  0  0  0  0  0  0  0  0  0  0
    0.2442    2.1332   -0.0740 N   0  0  0  0  0  0  0  0  0  0  0  0
   -0.4995    3.3701   -0.1116 C   0  0  0  0  0  0  0  0  0  0  0  0
   -0.3424    0.9719   -0.3750 C   0  0  0  0  0  0  0  0  0  0  0  0
   -1.6260    0.9354   -0.7154 N   0  0  0  0  0  0  0  0  0  0  0  0
    4.9289    0.2601    1.4800 O   0  0  0  0  0  1  0  0  0  0  0  0
    3.9447   -0.4864    0.8754 C   0  0  0  0  0  0  0  0  0  0  0  0
    4.2511   -1.4763    0.1873 O   0  0  0  0  0  0  0  0  0  0  0  0
    2.5286   -0.1163    1.0412 C   0  0  0  0  0  0  0  0  0  0  0  0
    2.1199    0.6451   -0.1948 C   0  0  0  0  0  0  0  0  0  0  0  0
    0.7618    1.0791   -0.1971 N   0  0  0  0  0  0  0  0  0  0  0  0
   -0.3441    0.2079   -0.1173 C   0  0  0  0  0  0  0  0  0  0  0  0
   -0.1322   -1.0221   -0.0380 O   0  0  0  0  0  0  0  0  0  0  0  0
   -1.7541    0.6948   -0.1251 C   0  0  0  0  0  0  0  0  0  0  0  0
   -2.7328   -0.4517   -0.0414 C   0  0  0  0  0  0  0  0  0  0  0  0
   -4.0989    0.1024   -0.0589 C   0  0  0  0  0  0  0  0  0  0  0  0
   -5.1673   -0.7657    0.0082 O   0  0  0  0  0  1  0  0  0  0  0  0
   -4.3056    1.3290   -0.1325 O   0  0  0  0  0  0  0  0  0  0  0  0
  2  1  1  1
  2  3  1  0
  3  4  1  0
  4  5  1  0
  5  6  2  0
  6  7  1  0
  7  8  2  0
  2  9  1  0
  9 10  1  0
 10 11  2  0
 11 12  1  0
 12 13  2  0
 13 14  1  0
 14 15  2  0
 15 16  1  0
 16 17  1  0
 17 18  2  0
 18 19  1  0
 19 20  2  0
 20 21  1  0
 20 22  1  0
 22 23  2  0
 23 24  1  0
 15 25  1  0
 25 26  2  0
 25 27  1  0
 27 28  1  0
 27 29  1  0
 29 30  2  0
 31 32  1  0
 32 33  2  0
 32 34  1  0
 34 35  1  0
 35 36  1  0
 36 37  1  0
 37 38  2  0
 37 39  1  0
 39 40  1  0
 40 41  1  0
 41 42  1  0
 41 43  2  0
  8  4  1  0
 30 10  1  0
 29 13  1  0
 23 17  1  0
M  RAD  2  31   2  42   2
M  END

