
     RDKit          3D

 11 10  0  0  0  0  0  0  0  0999 V2000
    1.4062    0.3186   -1.3675 C   0  0  0  0  0  0  0  0  0  0  0  0
    2.4406    0.3485   -0.2708 C   0  0  0  0  0  0  0  0  0  0  0  0
    3.5257   -0.7008   -0.5069 C   0  0  0  0  0  0  0  0  0  0  0  0
    1.8906    0.1391    1.0967 C   0  0  0  0  0  0  0  0  0  0  0  0
    1.2167   -1.2134    1.1476 C   0  0  0  0  0  0  0  0  0  0  0  0
    0.1524   -1.1792    0.1629 N   0  0  0  0  0  0  0  0  0  0  0  0
   -0.8655   -0.2297    0.3017 C   0  0  0  0  0  0  0  0  0  0  0  0
   -0.8337    0.5691    1.2739 O   0  0  0  0  0  0  0  0  0  0  0  0
   -2.0116   -0.0957   -0.6443 C   0  0  0  0  0  0  0  0  0  0  0  0
   -2.9473    1.0002   -0.2537 C   0  0  0  0  0  0  0  0  0  0  0  0
   -3.9741    1.0432   -1.1921 O   0  0  0  0  0  0  0  0  0  0  0  0
  1  2  1  0
  2  3  1  0
  2  4  1  0
  4  5  1  0
  5  6  1  0
  6  7  1  0
  7  8  2  0
  7  9  1  0
  9 10  1  0
 10 11  1  0
M  END

