
     RDKit          3D

 15 15  0  0  0  0  0  0  0  0999 V2000
   -4.6814    0.3393    1.4701 O   0  0  0  0  0  1  0  0  0  0  0  0
   -3.6039    0.7734    0.7149 C   0  0  0  0  0  0  0  0  0  0  0  0
   -3.7234    0.7730   -0.5279 O   0  0  0  0  0  0  0  0  0  0  0  0
   -2.3749    1.2139    1.3719 C   0  0  0  0  0  0  0  0  0  0  0  0
   -1.3339    0.1797    1.6056 C   0  0  0  0  0  0  0  0  0  0  0  0
   -0.8543   -0.4161    0.3491 C   0  0  0  0  0  0  0  0  0  0  0  0
   -1.2841   -0.0263   -0.7585 O   0  0  0  0  0  0  0  0  0  0  0  0
    0.1168   -1.4576    0.3634 N   0  0  0  0  0  0  0  0  0  0  0  0
    0.5521   -2.0066   -0.9008 C   0  0  0  0  0  0  0  0  0  0  0  0
    1.1774   -0.9349   -1.7726 C   0  0  0  0  0  0  0  0  0  0  0  0
    2.3489   -0.4079   -0.9943 C   0  0  0  0  0  0  0  0  0  0  0  0
    2.2666    0.6469   -0.1183 C   0  0  0  0  0  0  0  0  0  0  0  0
    3.4895    0.8372    0.3886 N   0  0  0  0  0  0  0  0  0  0  0  0
    4.2928   -0.0801   -0.1669 C   0  0  0  0  0  0  0  0  0  0  0  0
    3.6117   -0.8606   -1.0243 N   0  0  0  0  0  0  0  0  0  0  0  0
  1  2  1  0
  2  3  2  0
  2  4  1  0
  4  5  1  0
  5  6  1  0
  6  7  2  0
  6  8  1  0
  8  9  1  0
  9 10  1  0
 10 11  1  0
 11 12  2  0
 12 13  1  0
 13 14  1  0
 14 15  2  0
 15 11  1  0
M  RAD  1   1   2
M  END

