
     RDKit          3D

 42 44  0  0  0  0  0  0  0  0999 V2000
    1.1249    2.0658    0.5657 C   0  0  0  0  0  0  0  0  0  0  0  0
    2.3502    1.3697    0.1423 C   0  0  0  0  0  0  0  0  0  0  0  0
    3.6007    2.2108    0.1612 C   0  0  0  0  0  0  0  0  0  0  0  0
    2.5385   -0.0431    0.4596 C   0  0  0  0  0  0  0  0  0  0  0  0
    1.5872   -0.9378   -0.0600 N   0  0  0  0  0  0  0  0  0  0  0  0
    0.2234   -0.9587    0.2376 C   0  0  0  0  0  0  0  0  0  0  0  0
   -0.2528   -0.1245    1.0484 O   0  0  0  0  0  0  0  0  0  0  0  0
   -0.7006   -1.9791   -0.4060 C   0  0  0  0  0  0  0  0  0  0  0  0
   -2.0823   -1.7031    0.1102 C   0  0  0  0  0  0  0  0  0  0  0  0
   -2.5950   -0.3680   -0.2056 C   0  0  0  0  0  0  0  0  0  0  0  0
   -3.8680    0.0309    0.2609 N   0  0  0  0  0  0  0  0  0  0  0  0
   -1.9261    0.4372   -0.8865 O   0  0  0  0  0  0  0  0  0  0  0  0
   -4.5302    2.3124    0.9540 C   0  0  0  0  0  0  0  0  0  0  0  0
   -5.1865    1.7642   -0.3927 C   0  0  2  0  0  0  0  0  0  0  0  0
   -5.5947    0.3091   -0.0686 C   0  0  0  0  0  0  0  0  0  0  0  0
   -4.6614   -0.6321    0.3279 N   0  0  0  0  0  0  0  0  0  0  0  0
   -3.8837   -1.4858   -0.3665 N   0  0  0  0  0  0  0  0  0  0  0  0
   -3.1605   -2.2340    0.4780 C   0  0  0  0  0  0  0  0  0  0  0  0
   -3.4838   -1.8501    1.7167 N   0  0  0  0  0  0  0  0  0  0  0  0
   -4.3729   -0.9022    1.5906 N   0  0  0  0  0  0  0  0  0  0  0  0
   -3.9486    1.5408   -1.1951 N   0  0  0  0  0  0  0  0  0  0  0  0
   -2.6835    1.2267   -0.7403 C   0  0  0  0  0  0  0  0  0  0  0  0
   -2.2560    1.0700    0.5177 N   0  0  0  0  0  0  0  0  0  0  0  0
   -0.9833    0.7600    0.8341 C   0  0  0  0  0  0  0  0  0  0  0  0
   -0.0389    0.5864   -0.1676 C   0  0  0  0  0  0  0  0  0  0  0  0
    1.2642    0.2712    0.1069 C   0  0  0  0  0  0  0  0  0  0  0  0
    2.1336    0.1175   -0.9492 C   0  0  0  0  0  0  0  0  0  0  0  0
    3.4597   -0.1994   -0.7562 O   0  0  0  0  0  0  0  0  0  0  0  0
    4.0042   -0.3833    0.5027 C   0  0  0  0  0  0  0  0  0  0  0  0
    5.0395    0.4483    0.8763 C   0  0  0  0  0  0  0  0  0  0  0  0
    5.5923    0.2831    2.1176 C   0  0  0  0  0  0  0  0  0  0  0  0
    5.1454   -0.6750    2.9810 C   0  0  0  0  0  0  0  0  0  0  0  0
    5.6562   -0.8791    4.2161 F   0  0  0  0  0  0  0  0  0  0  0  0
    4.1137   -1.4869    2.5801 C   0  0  0  0  0  0  0  0  0  0  0  0
    3.5230   -1.3655    1.3478 C   0  0  0  0  0  0  0  0  0  0  0  0
    2.5069   -2.1523    0.9309 F   0  0  0  0  0  0  0  0  0  0  0  0
    1.6970    0.2783   -2.2515 C   0  0  0  0  0  0  0  0  0  0  0  0
    2.5057    0.1342   -3.2108 O   0  0  0  0  0  0  0  0  0  0  0  0
    0.4349    0.5823   -2.4891 N   0  0  0  0  0  0  0  0  0  0  0  0
   -0.0879    0.7648   -3.8280 C   0  0  0  0  0  0  0  0  0  0  0  0
   -0.4674    0.7454   -1.4714 C   0  0  0  0  0  0  0  0  0  0  0  0
   -1.7373    1.0510   -1.7040 N   0  0  0  0  0  0  0  0  0  0  0  0
  1  2  1  0
  2  3  1  0
  2  4  1  0
  4  5  1  0
  5  6  1  0
  6  7  2  0
  6  8  1  0
  8  9  1  0
  9 10  1  0
 10 11  1  0
 10 12  2  0
 14 13  1  1
 14 15  1  0
 15 16  1  0
 16 17  1  0
 17 18  2  0
 18 19  1  0
 19 20  2  0
 14 21  1  0
 21 22  1  0
 22 23  2  0
 23 24  1  0
 24 25  2  0
 25 26  1  0
 26 27  2  0
 27 28  1  0
 28 29  1  0
 29 30  2  0
 30 31  1  0
 31 32  2  0
 32 33  1  0
 32 34  1  0
 34 35  2  0
 35 36  1  0
 27 37  1  0
 37 38  2  0
 37 39  1  0
 39 40  1  0
 39 41  1  0
 41 42  2  0
 20 16  1  0
 42 22  1  0
 41 25  1  0
 35 29  1  0
M  END

