
     RDKit          3D

 46 48  0  0  0  0  0  0  0  0999 V2000
    2.5720    2.0825   -1.4201 C   0  0  0  0  0  0  0  0  0  0  0  0
    3.4221    1.1170   -0.6361 C   0  0  0  0  0  0  0  0  0  0  0  0
    4.2732    1.7823    0.4038 C   0  0  0  0  0  0  0  0  0  0  0  0
    2.6291   -0.0366   -0.1212 C   0  0  0  0  0  0  0  0  0  0  0  0
    1.5131    0.3591    0.7921 C   0  0  0  0  0  0  0  0  0  0  0  0
    0.7868   -0.8407    1.2503 C   0  0  0  0  0  0  0  0  0  0  0  0
    1.1637   -1.9654    0.8494 O   0  0  0  0  0  0  0  0  0  0  0  0
   -0.3255   -0.7793    2.1294 N   0  0  0  0  0  0  0  0  0  0  0  0
   -1.0161   -2.0012    2.5576 C   0  0  0  0  0  0  0  0  0  0  0  0
   -1.5801   -2.7536    1.3697 C   0  0  0  0  0  0  0  0  0  0  0  0
   -2.5762   -1.9162    0.5974 C   0  0  0  0  0  0  0  0  0  0  0  0
   -1.8643   -0.6681    0.0993 C   0  0  0  0  0  0  0  0  0  0  0  0
   -2.7519    0.1863   -0.6506 N   0  0  0  0  0  0  0  0  0  0  0  0
   -2.2172    1.3890   -1.1756 C   0  0  0  0  0  0  0  0  0  0  0  0
   -3.0390    2.2949   -1.9351 N   0  0  0  0  0  0  0  0  0  0  0  0
   -0.9897    1.7500   -1.0160 N   0  0  0  0  0  4  0  0  0  0  0  0
   -3.5371    2.8405    0.4318 C   0  0  0  0  0  0  0  0  0  0  0  0
   -4.6887    1.7039    0.1030 C   0  0  2  0  0  0  0  0  0  0  0  0
   -3.9702    0.5393    1.0168 C   0  0  0  0  0  0  0  0  0  0  0  0
   -4.8778   -0.6025    0.8508 N   0  0  0  0  0  0  0  0  0  0  0  0
   -5.9239   -0.9322    1.5753 N   0  0  0  0  0  0  0  0  0  0  0  0
   -6.5000   -2.0529    1.1024 C   0  0  0  0  0  0  0  0  0  0  0  0
   -5.7682   -2.4197    0.0409 N   0  0  0  0  0  0  0  0  0  0  0  0
   -4.7934   -1.5279   -0.0914 N   0  0  0  0  0  0  0  0  0  0  0  0
   -4.0480    1.2214   -1.2396 N   0  0  0  0  0  0  0  0  0  0  0  0
   -2.7504    0.7304   -1.2725 C   0  0  0  0  0  0  0  0  0  0  0  0
   -2.2864    0.3399   -2.4714 N   0  0  0  0  0  0  0  0  0  0  0  0
   -1.0588   -0.1559   -2.6755 C   0  0  0  0  0  0  0  0  0  0  0  0
   -0.2055   -0.2804   -1.6011 C   0  0  0  0  0  0  0  0  0  0  0  0
    1.0678   -0.7800   -1.7318 C   0  0  0  0  0  0  0  0  0  0  0  0
    1.8957   -0.8932   -0.6478 C   0  0  0  0  0  0  0  0  0  0  0  0
    3.1752   -1.4019   -0.8155 O   0  0  0  0  0  0  0  0  0  0  0  0
    4.2731   -0.6215   -0.4832 C   0  0  0  0  0  0  0  0  0  0  0  0
    5.1657   -1.0420    0.4769 C   0  0  0  0  0  0  0  0  0  0  0  0
    6.2712   -0.2572    0.8122 C   0  0  0  0  0  0  0  0  0  0  0  0
    6.4568    0.9359    0.1743 C   0  0  0  0  0  0  0  0  0  0  0  0
    7.5232    1.6916    0.4985 F   0  0  0  0  0  0  0  0  0  0  0  0
    5.5717    1.3785   -0.7947 C   0  0  0  0  0  0  0  0  0  0  0  0
    4.4951    0.5777   -1.0972 C   0  0  0  0  0  0  0  0  0  0  0  0
    3.6115    0.9816   -2.0397 F   0  0  0  0  0  0  0  0  0  0  0  0
    1.4237   -0.4957    0.5738 C   0  0  0  0  0  0  0  0  0  0  0  0
    2.1836   -0.6005    1.5640 O   0  0  0  0  0  0  0  0  0  0  0  0
    0.1767   -0.0072    0.6974 N   0  0  0  0  0  0  0  0  0  0  0  0
   -0.3054    0.4093    2.0023 C   0  0  0  0  0  0  0  0  0  0  0  0
   -0.6662    0.1158   -0.3640 C   0  0  0  0  0  0  0  0  0  0  0  0
   -1.9109    0.6048   -0.2325 N   0  0  0  0  0  0  0  0  0  0  0  0
  1  2  1  0
  2  3  1  0
  2  4  1  0
  4  5  1  0
  5  6  1  0
  6  7  2  0
  6  8  1  0
  8  9  1  0
  9 10  1  0
 10 11  1  0
 11 12  1  0
 12 13  1  0
 13 14  1  0
 14 15  1  0
 14 16  2  0
 18 17  1  1
 18 19  1  0
 19 20  1  0
 20 21  1  0
 21 22  2  0
 22 23  1  0
 23 24  2  0
 18 25  1  0
 25 26  1  0
 26 27  2  0
 27 28  1  0
 28 29  2  0
 29 30  1  0
 30 31  2  0
 31 32  1  0
 32 33  1  0
 33 34  2  0
 34 35  1  0
 35 36  2  0
 36 37  1  0
 36 38  1  0
 38 39  2  0
 39 40  1  0
 31 41  1  0
 41 42  2  0
 41 43  1  0
 43 44  1  0
 43 45  1  0
 45 46  2  0
 24 20  1  0
 46 26  1  0
 45 29  1  0
 39 33  1  0
M  CHG  1  16   1
M  END

