
     RDKit          3D

 41 43  0  0  0  0  0  0  0  0999 V2000
    3.4260   -0.6189   -1.7983 C   0  0  0  0  0  0  0  0  0  0  0  0
    3.2937    0.2567   -0.5959 C   0  0  0  0  0  0  0  0  0  0  0  0
    4.5865    0.4610    0.1228 C   0  0  0  0  0  0  0  0  0  0  0  0
    2.1677   -0.1436    0.3266 C   0  0  0  0  0  0  0  0  0  0  0  0
    0.8281   -0.1050   -0.3460 C   0  0  0  0  0  0  0  0  0  0  0  0
   -0.1615   -0.5108    0.6501 N   0  0  0  0  0  0  0  0  0  0  0  0
   -1.5365   -0.5703    0.3010 C   0  0  0  0  0  0  0  0  0  0  0  0
   -1.8447   -0.2646   -0.8738 O   0  0  0  0  0  0  0  0  0  0  0  0
   -2.5650   -0.9777    1.2871 C   0  0  0  0  0  0  0  0  0  0  0  0
   -3.9524   -0.9644    0.6827 C   0  0  0  0  0  0  0  0  0  0  0  0
   -4.2420    0.3237    0.2436 O   0  0  0  0  0  0  0  0  0  0  0  0
    4.2128   -0.2827   -3.5672 C   0  0  0  0  0  0  0  0  0  0  0  0
    4.9408    0.0510   -2.1513 C   0  0  2  0  0  0  0  0  0  0  0  0
    4.3653   -1.2632   -1.3937 C   0  0  0  0  0  0  0  0  0  0  0  0
    4.9419   -1.1127   -0.0688 N   0  0  0  0  0  0  0  0  0  0  0  0
    4.3949   -0.4805    0.9455 N   0  0  0  0  0  0  0  0  0  0  0  0
    5.2675   -0.5884    1.9670 C   0  0  0  0  0  0  0  0  0  0  0  0
    6.3419   -1.2892    1.5597 N   0  0  0  0  0  0  0  0  0  0  0  0
    6.1292   -1.6020    0.3169 N   0  0  0  0  0  0  0  0  0  0  0  0
    3.8685    1.0229   -1.6281 N   0  0  0  0  0  0  0  0  0  0  0  0
    2.5253    0.6292   -1.5029 C   0  0  0  0  0  0  0  0  0  0  0  0
    2.2349   -0.6230   -1.8642 N   0  0  0  0  0  0  0  0  0  0  0  0
    0.9801   -1.0591   -1.7699 C   0  0  0  0  0  0  0  0  0  0  0  0
    0.0036   -0.2158   -1.3030 C   0  0  0  0  0  0  0  0  0  0  0  0
   -1.3030   -0.6627   -1.2025 C   0  0  0  0  0  0  0  0  0  0  0  0
   -2.3116    0.1718   -0.7325 C   0  0  0  0  0  0  0  0  0  0  0  0
   -3.5932   -0.2760   -0.6370 O   0  0  0  0  0  0  0  0  0  0  0  0
   -4.2870   -0.3188    0.5522 C   0  0  0  0  0  0  0  0  0  0  0  0
   -5.4500    0.4095    0.6531 C   0  0  0  0  0  0  0  0  0  0  0  0
   -6.1809    0.3938    1.8362 C   0  0  0  0  0  0  0  0  0  0  0  0
   -5.7132   -0.3599    2.8858 C   0  0  0  0  0  0  0  0  0  0  0  0
   -6.4161   -0.3844    4.0462 F   0  0  0  0  0  0  0  0  0  0  0  0
   -4.5526   -1.1016    2.8206 C   0  0  0  0  0  0  0  0  0  0  0  0
   -3.8356   -1.0671    1.6145 C   0  0  0  0  0  0  0  0  0  0  0  0
   -2.6871   -1.7760    1.4906 F   0  0  0  0  0  0  0  0  0  0  0  0
   -1.9594    1.4605   -0.3710 C   0  0  0  0  0  0  0  0  0  0  0  0
   -2.8169    2.2700    0.0619 O   0  0  0  0  0  0  0  0  0  0  0  0
   -0.6777    1.8564   -0.4838 N   0  0  0  0  0  0  0  0  0  0  0  0
   -0.3220    3.2203   -0.0979 C   0  0  0  0  0  0  0  0  0  0  0  0
    0.3117    1.0769   -0.9318 C   0  0  0  0  0  0  0  0  0  0  0  0
    1.5878    1.4687   -1.0448 N   0  0  0  0  0  0  0  0  0  0  0  0
  1  2  1  0
  2  3  1  0
  2  4  1  0
  4  5  1  0
  5  6  1  0
  6  7  1  0
  7  8  2  0
  7  9  1  0
  9 10  1  0
 10 11  1  0
 13 12  1  6
 13 14  1  0
 14 15  1  0
 15 16  1  0
 16 17  2  0
 17 18  1  0
 18 19  2  0
 13 20  1  0
 20 21  1  0
 21 22  2  0
 22 23  1  0
 23 24  2  0
 24 25  1  0
 25 26  2  0
 26 27  1  0
 27 28  1  0
 28 29  2  0
 29 30  1  0
 30 31  2  0
 31 32  1  0
 31 33  1  0
 33 34  2  0
 34 35  1  0
 26 36  1  0
 36 37  2  0
 36 38  1  0
 38 39  1  0
 38 40  1  0
 40 41  2  0
 19 15  1  0
 41 21  1  0
 40 24  1  0
 34 28  1  0
M  END

