
     RDKit          3D

 40 43  0  0  0  0  0  0  0  0999 V2000
    2.6890    0.7991    0.4304 C   0  0  0  0  0  0  0  0  0  0  0  0
    2.1459    0.2919   -0.9321 C   0  0  0  0  0  0  0  0  0  0  0  0
    0.6878    0.1119   -0.6552 N   0  0  0  0  0  0  0  0  0  0  0  0
    0.3553   -0.7723    0.3460 C   0  0  0  0  0  0  0  0  0  0  0  0
    0.9820   -1.5313    1.0231 O   0  0  0  0  0  0  0  0  0  0  0  0
   -1.2710   -0.8792    0.7120 C   0  0  2  0  0  0  0  0  0  0  0  0
   -1.7578   -0.6966   -0.7788 C   0  0  0  0  0  0  0  0  0  0  0  0
   -1.4542    0.6333   -1.2118 C   0  0  0  0  0  0  0  0  0  0  0  0
   -1.0448    1.3838   -0.0369 C   0  0  0  0  0  0  0  0  0  0  0  0
   -1.3323    0.6593    1.1034 N   0  0  0  0  0  0  0  0  0  0  0  0
    3.5555   -1.2302    2.0132 C   0  0  0  0  0  0  0  0  0  0  0  0
    4.2727   -1.1982    0.5229 C   0  0  2  0  0  0  0  0  0  0  0  0
    5.5617   -0.3573    1.0843 C   0  0  0  0  0  0  0  0  0  0  0  0
    6.3717   -0.1954   -0.0789 N   0  0  0  0  0  0  0  0  0  0  0  0
    7.3028   -1.0559   -0.4468 N   0  0  0  0  0  0  0  0  0  0  0  0
    7.8678   -0.6078   -1.5685 C   0  0  0  0  0  0  0  0  0  0  0  0
    7.2353    0.5477   -1.8474 N   0  0  0  0  0  0  0  0  0  0  0  0
    6.3139    0.8065   -0.9344 N   0  0  0  0  0  0  0  0  0  0  0  0
    3.5308    0.0922    0.0580 N   0  0  0  0  0  0  0  0  0  0  0  0
    2.1274    0.0563    0.0137 C   0  0  0  0  0  0  0  0  0  0  0  0
    1.4810   -1.0613    0.3647 N   0  0  0  0  0  0  0  0  0  0  0  0
    0.1425   -1.1466    0.3396 C   0  0  0  0  0  0  0  0  0  0  0  0
   -0.5661   -0.0410   -0.0616 C   0  0  0  0  0  0  0  0  0  0  0  0
   -1.9554   -0.0263   -0.1224 C   0  0  0  0  0  0  0  0  0  0  0  0
   -2.6491    1.0867   -0.5256 C   0  0  0  0  0  0  0  0  0  0  0  0
   -4.0199    1.1554   -0.6039 O   0  0  0  0  0  0  0  0  0  0  0  0
   -4.7443    0.0133   -0.2478 C   0  0  0  0  0  0  0  0  0  0  0  0
   -5.5864   -0.6313   -1.1310 C   0  0  0  0  0  0  0  0  0  0  0  0
   -6.2927   -1.7471   -0.7793 C   0  0  0  0  0  0  0  0  0  0  0  0
   -6.1697   -2.2621    0.5063 C   0  0  0  0  0  0  0  0  0  0  0  0
   -6.8628   -3.3669    0.8699 F   0  0  0  0  0  0  0  0  0  0  0  0
   -5.3382   -1.6472    1.4195 C   0  0  0  0  0  0  0  0  0  0  0  0
   -4.6411   -0.5216    1.0263 C   0  0  0  0  0  0  0  0  0  0  0  0
   -3.8030    0.1352    1.8765 F   0  0  0  0  0  0  0  0  0  0  0  0
   -1.9032    2.1888   -0.8674 C   0  0  0  0  0  0  0  0  0  0  0  0
   -2.4486    3.2603   -1.2506 O   0  0  0  0  0  0  0  0  0  0  0  0
   -0.5613    2.1871   -0.8129 N   0  0  0  0  0  0  0  0  0  0  0  0
    0.2190    3.3749   -1.1821 C   0  0  0  0  0  0  0  0  0  0  0  0
    0.1114    1.0808   -0.4128 C   0  0  0  0  0  0  0  0  0  0  0  0
    1.4481    1.1111   -0.3693 N   0  0  0  0  0  0  0  0  0  0  0  0
  1  2  1  0
  2  3  1  0
  3  4  1  0
  4  5  2  0
  6  4  1  6
  6  7  1  0
  7  8  1  0
  8  9  1  0
  9 10  1  0
 12 11  1  1
 12 13  1  0
 13 14  1  0
 14 15  1  0
 15 16  2  0
 16 17  1  0
 17 18  2  0
 12 19  1  0
 19 20  1  0
 20 21  2  0
 21 22  1  0
 22 23  2  0
 23 24  1  0
 24 25  2  0
 25 26  1  0
 26 27  1  0
 27 28  2  0
 28 29  1  0
 29 30  2  0
 30 31  1  0
 30 32  1  0
 32 33  2  0
 33 34  1  0
 25 35  1  0
 35 36  2  0
 35 37  1  0
 37 38  1  0
 37 39  1  0
 39 40  2  0
 10  6  1  0
 18 14  1  0
 40 20  1  0
 39 23  1  0
 33 27  1  0
M  END

