
     RDKit          3D

 11 10  0  0  0  0  0  0  0  0999 V2000
   -4.0562    2.1825   -0.3851 C   0  0  0  0  0  0  0  0  0  0  0  0
   -2.7255    1.9099    0.2722 C   0  0  0  0  0  0  0  0  0  0  0  0
   -2.2162    0.5933   -0.2161 C   0  0  0  0  0  0  0  0  0  0  0  0
   -2.8693   -0.0978   -1.0421 O   0  0  0  0  0  0  0  0  0  0  0  0
   -0.9764    0.0563    0.2235 N   0  0  0  0  0  0  0  0  0  0  0  0
   -0.4541   -1.2186   -0.2313 C   0  0  0  0  0  0  0  0  0  0  0  0
    0.8732   -1.4236    0.4651 C   0  0  0  0  0  0  0  0  0  0  0  0
    1.8374   -0.2996    0.1094 C   0  0  0  0  0  0  0  0  0  0  0  0
    3.1316   -0.4854    0.7789 C   0  0  0  0  0  0  0  0  0  0  0  0
    3.3975   -1.5593    1.6178 O   0  0  0  0  0  1  0  0  0  0  0  0
    4.0580    0.3423    0.6076 O   0  0  0  0  0  0  0  0  0  0  0  0
  1  2  1  0
  2  3  1  0
  3  4  2  0
  3  5  1  0
  5  6  1  0
  6  7  1  0
  7  8  1  0
  8  9  1  0
  9 10  1  0
  9 11  2  0
M  RAD  1  10   2
M  END

