
     RDKit          3D

 10  9  0  0  0  0  0  0  0  0999 V2000
    3.6582    1.6844   -0.3517 C   0  0  0  0  0  0  0  0  0  0  0  0
    2.3474    1.2956    0.2573 C   0  0  0  0  0  0  0  0  0  0  0  0
    1.6555    0.2189   -0.5078 C   0  0  0  0  0  0  0  0  0  0  0  0
    2.1082   -0.3038   -1.5372 O   0  0  0  0  0  0  0  0  0  0  0  0
    0.3972   -0.2130    0.0034 N   0  0  0  0  0  0  0  0  0  0  0  0
   -0.3148   -1.2524   -0.6984 C   0  0  0  0  0  0  0  0  0  0  0  0
   -1.5971   -1.5142    0.0448 C   0  0  0  0  0  0  0  0  0  0  0  0
   -2.4546   -0.3052    0.1198 C   0  0  0  0  0  0  0  0  0  0  0  0
   -3.6667   -0.4072    0.7780 O   0  0  0  0  0  1  0  0  0  0  0  0
   -2.1333    0.7968   -0.3825 O   0  0  0  0  0  0  0  0  0  0  0  0
  1  2  1  0
  2  3  1  0
  3  4  2  0
  3  5  1  0
  5  6  1  0
  6  7  1  0
  7  8  1  0
  8  9  1  0
  8 10  2  0
M  RAD  1   9   2
M  END

