
     RDKit          3D

 46 48  0  0  0  0  0  0  0  0999 V2000
   -5.0081    1.6607    1.3957 C   0  0  0  0  0  0  0  0  0  0  0  0
   -4.6370    0.2989    0.8767 C   0  0  0  0  0  0  0  0  0  0  0  0
   -4.0825   -0.5666    2.0107 C   0  0  0  0  0  0  0  0  0  0  0  0
   -3.5827    0.4247   -0.2205 C   0  0  0  0  0  0  0  0  0  0  0  0
   -3.1970   -0.9153   -0.7528 C   0  0  0  0  0  0  0  0  0  0  0  0
   -2.2114   -0.7485   -1.7738 N   0  0  0  0  0  0  0  0  0  0  0  0
   -0.9649   -0.1283   -1.4927 C   0  0  0  0  0  0  0  0  0  0  0  0
   -0.7867    0.2567   -0.3145 O   0  0  0  0  0  0  0  0  0  0  0  0
    0.0292    0.0235   -2.5860 C   0  0  0  0  0  0  0  0  0  0  0  0
    1.2547    0.7083   -2.0216 C   0  0  0  0  0  0  0  0  0  0  0  0
    1.7841   -0.1859   -0.9119 C   0  0  0  0  0  0  0  0  0  0  0  0
    3.0222    0.4172   -0.2771 C   0  0  0  0  0  0  0  0  0  0  0  0
    3.4514   -0.4978    0.7608 N   0  0  0  0  0  0  0  0  0  0  0  0
    4.6014   -0.1629    1.5145 C   0  0  0  0  0  0  0  0  0  0  0  0
    5.1247   -0.9738    2.5582 N   0  0  0  0  0  0  0  0  0  0  0  0
    5.2027    0.9392    1.2341 N   0  0  0  0  0  4  0  0  0  0  0  0
    3.6149   -3.0265    1.3500 C   0  0  0  0  0  0  0  0  0  0  0  0
    4.7272   -2.0587    0.6480 C   0  0  2  0  0  0  0  0  0  0  0  0
    4.0180   -0.6732    1.1260 C   0  0  0  0  0  0  0  0  0  0  0  0
    4.9657    0.2851    0.5318 N   0  0  0  0  0  0  0  0  0  0  0  0
    4.9361    0.8300   -0.6608 N   0  0  0  0  0  0  0  0  0  0  0  0
    6.0113    1.6540   -0.7808 C   0  0  0  0  0  0  0  0  0  0  0  0
    6.6641    1.5639    0.3899 N   0  0  0  0  0  0  0  0  0  0  0  0
    6.0169    0.7178    1.1998 N   0  0  0  0  0  0  0  0  0  0  0  0
    4.0887   -2.0616   -0.7616 N   0  0  0  0  0  0  0  0  0  0  0  0
    2.7784   -1.6531   -0.9714 C   0  0  0  0  0  0  0  0  0  0  0  0
    2.1620   -1.6300   -2.1666 N   0  0  0  0  0  0  0  0  0  0  0  0
    0.8870   -1.2243   -2.2915 C   0  0  0  0  0  0  0  0  0  0  0  0
    0.1499   -0.8087   -1.1764 C   0  0  0  0  0  0  0  0  0  0  0  0
   -1.1379   -0.3919   -1.2579 C   0  0  0  0  0  0  0  0  0  0  0  0
   -1.8261    0.0198   -0.0657 C   0  0  0  0  0  0  0  0  0  0  0  0
   -3.0353    0.4175   -0.0993 O   0  0  0  0  0  0  0  0  0  0  0  0
   -4.2585    0.8199   -0.1332 C   0  0  0  0  0  0  0  0  0  0  0  0
   -4.9526    0.8467   -1.3781 C   0  0  0  0  0  0  0  0  0  0  0  0
   -6.2314    1.2643   -1.4325 C   0  0  0  0  0  0  0  0  0  0  0  0
   -6.9409    1.6827   -0.3284 C   0  0  0  0  0  0  0  0  0  0  0  0
   -8.2218    2.0864   -0.4727 F   0  0  0  0  0  0  0  0  0  0  0  0
   -6.2745    1.6566    0.8638 C   0  0  0  0  0  0  0  0  0  0  0  0
   -4.9688    1.2384    0.9692 C   0  0  0  0  0  0  0  0  0  0  0  0
   -4.3679    1.2465    2.2271 F   0  0  0  0  0  0  0  0  0  0  0  0
   -1.0734   -0.0544    1.0919 C   0  0  0  0  0  0  0  0  0  0  0  0
   -1.6472    0.3003    2.1607 O   0  0  0  0  0  0  0  0  0  0  0  0
    0.1859   -0.4608    1.1803 N   0  0  0  0  0  0  0  0  0  0  0  0
    0.8691   -0.4943    2.4540 C   0  0  0  0  0  0  0  0  0  0  0  0
    0.7990   -0.8401    0.0355 C   0  0  0  0  0  0  0  0  0  0  0  0
    2.0620   -1.2522    0.0918 N   0  0  0  0  0  0  0  0  0  0  0  0
  1  2  1  0
  2  3  1  0
  2  4  1  0
  4  5  1  0
  5  6  1  0
  6  7  1  0
  7  8  2  0
  7  9  1  0
  9 10  1  0
 10 11  1  0
 11 12  1  0
 12 13  1  0
 13 14  1  0
 14 15  1  0
 14 16  2  0
 18 17  1  1
 18 19  1  0
 19 20  1  0
 20 21  1  0
 21 22  2  0
 22 23  1  0
 23 24  2  0
 18 25  1  0
 25 26  1  0
 26 27  2  0
 27 28  1  0
 28 29  2  0
 29 30  1  0
 30 31  2  0
 31 32  1  0
 32 33  1  0
 33 34  2  0
 34 35  1  0
 35 36  2  0
 36 37  1  0
 36 38  1  0
 38 39  2  0
 39 40  1  0
 31 41  1  0
 41 42  2  0
 41 43  1  0
 43 44  1  0
 43 45  1  0
 45 46  2  0
 24 20  1  0
 46 26  1  0
 45 29  1  0
 39 33  1  0
M  CHG  1  16   1
M  END

