
     RDKit          3D

 42 44  0  0  0  0  0  0  0  0999 V2000
    4.7308    0.0069   -0.0147 C   0  0  0  0  0  0  0  0  0  0  0  0
    3.2973   -0.0628   -0.5187 C   0  0  0  0  0  0  0  0  0  0  0  0
    2.6109   -1.3125   -0.0931 C   0  0  0  0  0  0  0  0  0  0  0  0
    2.5745    1.1401   -0.0422 C   0  0  0  0  0  0  0  0  0  0  0  0
    1.1926    1.3594   -0.3667 C   0  0  0  0  0  0  0  0  0  0  0  0
    0.1378    0.4796    0.0673 C   0  0  0  0  0  0  0  0  0  0  0  0
    0.3326   -0.4576    0.8716 O   0  0  0  0  0  0  0  0  0  0  0  0
   -1.2282    0.6012   -0.3851 N   0  0  0  0  0  0  0  0  0  0  0  0
   -2.2405   -0.3231    0.0951 C   0  0  0  0  0  0  0  0  0  0  0  0
   -3.6087    0.2197   -0.6972 C   0  0  1  0  0  0  0  0  0  0  0  0
   -3.3013   -0.7761   -2.0301 C   0  0  0  0  0  0  0  0  0  0  0  0
   -4.4978   -0.8747   -0.0481 O   0  0  0  0  0  0  0  0  0  0  0  0
   -5.7723    2.3172    1.2183 C   0  0  0  0  0  0  0  0  0  0  0  0
   -4.1630    2.4999    0.8679 C   0  0  2  0  0  0  0  0  0  0  0  0
   -4.3649    2.3634   -0.7610 C   0  0  0  0  0  0  0  0  0  0  0  0
   -4.9403    1.1038   -1.0459 N   0  0  0  0  0  0  0  0  0  0  0  0
   -6.2422    0.8848   -1.1070 N   0  0  0  0  0  0  0  0  0  0  0  0
   -6.5239   -0.3979   -1.3942 C   0  0  0  0  0  0  0  0  0  0  0  0
   -5.3259   -0.9944   -1.5150 N   0  0  0  0  0  0  0  0  0  0  0  0
   -4.3904   -0.0828   -1.3038 N   0  0  0  0  0  0  0  0  0  0  0  0
   -3.8291    0.9784    1.0767 N   0  0  0  0  0  0  0  0  0  0  0  0
   -2.4449    0.7461    0.8456 C   0  0  0  0  0  0  0  0  0  0  0  0
   -1.5697    1.6956    0.5015 N   0  0  0  0  0  0  0  0  0  0  0  0
   -0.2574    1.5061    0.2768 C   0  0  0  0  0  0  0  0  0  0  0  0
    0.2213    0.2170    0.4152 C   0  0  0  0  0  0  0  0  0  0  0  0
    1.5530   -0.0873    0.2074 C   0  0  0  0  0  0  0  0  0  0  0  0
    2.0415   -1.3677    0.3422 C   0  0  0  0  0  0  0  0  0  0  0  0
    3.3893   -1.6591    0.1289 O   0  0  0  0  0  0  0  0  0  0  0  0
    4.2398   -0.6242   -0.2257 C   0  0  0  0  0  0  0  0  0  0  0  0
    3.8174    0.6781   -0.3776 C   0  0  0  0  0  0  0  0  0  0  0  0
    4.6712    1.7033   -0.7311 C   0  0  0  0  0  0  0  0  0  0  0  0
    5.9990    1.4305   -0.9438 C   0  0  0  0  0  0  0  0  0  0  0  0
    6.8970    2.3982   -1.2957 F   0  0  0  0  0  0  0  0  0  0  0  0
    6.4384    0.1405   -0.7976 C   0  0  0  0  0  0  0  0  0  0  0  0
    5.5751   -0.8736   -0.4441 C   0  0  0  0  0  0  0  0  0  0  0  0
    5.9988   -2.1605   -0.2953 F   0  0  0  0  0  0  0  0  0  0  0  0
    1.1434   -2.3522    0.6972 C   0  0  0  0  0  0  0  0  0  0  0  0
    1.6111   -3.5202    0.8159 O   0  0  0  0  0  0  0  0  0  0  0  0
   -0.1516   -2.0659    0.9010 N   0  0  0  0  0  0  0  0  0  0  0  0
   -1.0494   -3.1486    1.2736 C   0  0  0  0  0  0  0  0  0  0  0  0
   -0.6444   -0.8137    0.7721 C   0  0  0  0  0  0  0  0  0  0  0  0
   -1.9268   -0.5150    0.9711 N   0  0  0  0  0  0  0  0  0  0  0  0
  1  2  1  0
  2  3  1  0
  2  4  1  0
  4  5  1  0
  5  6  1  0
  6  7  2  0
  6  8  1  0
  8  9  1  0
  9 10  1  0
 10 11  1  6
 10 12  1  0
 14 13  1  1
 14 15  1  0
 15 16  1  0
 16 17  1  0
 17 18  2  0
 18 19  1  0
 19 20  2  0
 14 21  1  0
 21 22  1  0
 22 23  2  0
 23 24  1  0
 24 25  2  0
 25 26  1  0
 26 27  2  0
 27 28  1  0
 28 29  1  0
 29 30  2  0
 30 31  1  0
 31 32  2  0
 32 33  1  0
 32 34  1  0
 34 35  2  0
 35 36  1  0
 27 37  1  0
 37 38  2  0
 37 39  1  0
 39 40  1  0
 39 41  1  0
 41 42  2  0
 20 16  1  0
 42 22  1  0
 41 25  1  0
 35 29  1  0
M  END

