
     RDKit          3D

 13 12  0  0  0  0  0  0  0  0999 V2000
    4.6612    0.2970    1.9520 C   0  0  0  0  0  0  0  0  0  0  0  0
    3.6621   -0.0704    0.8457 C   0  0  0  0  0  0  0  0  0  0  0  0
    4.1051    0.6963   -0.3829 C   0  0  0  0  0  0  0  0  0  0  0  0
    2.3133    0.4177    1.3271 C   0  0  0  0  0  0  0  0  0  0  0  0
    1.2338    0.1379    0.3670 C   0  0  0  0  0  0  0  0  0  0  0  0
    1.4892   -0.4429   -0.7037 O   0  0  0  0  0  0  0  0  0  0  0  0
   -0.0866    0.5295    0.6645 N   0  0  0  0  0  0  0  0  0  0  0  0
   -1.2080    0.2966   -0.2171 C   0  0  0  0  0  0  0  0  0  0  0  0
   -1.3553   -1.2040   -0.4440 C   0  0  0  0  0  0  0  0  0  0  0  0
   -2.5208   -1.4328   -1.3591 C   0  0  0  0  0  0  0  0  0  0  0  0
   -3.7713   -0.8734   -0.7072 C   0  0  0  0  0  0  0  0  0  0  0  0
   -3.6319    0.6149   -0.4469 C   0  0  0  0  0  0  0  0  0  0  0  0
   -4.8909    1.0335    0.1783 N   0  0  0  0  0  4  0  0  0  0  0  0
  1  2  1  0
  2  3  1  0
  2  4  1  0
  4  5  1  0
  5  6  2  0
  5  7  1  0
  7  8  1  0
  8  9  1  0
  9 10  1  0
 10 11  1  0
 11 12  1  0
 12 13  1  0
M  CHG  1  13   1
M  END

