
     RDKit          3D

 43 45  0  0  0  0  0  0  0  0999 V2000
    3.7672    0.9369    2.3579 C   0  0  0  0  0  0  0  0  0  0  0  0
    3.8371    1.0027    0.8686 C   0  0  0  0  0  0  0  0  0  0  0  0
    5.2177    0.9813    0.3058 C   0  0  0  0  0  0  0  0  0  0  0  0
    2.9288    0.0578    0.1581 C   0  0  0  0  0  0  0  0  0  0  0  0
    1.4693    0.3078    0.5057 C   0  0  0  0  0  0  0  0  0  0  0  0
    0.6306   -0.6330   -0.2078 N   0  0  0  0  0  0  0  0  0  0  0  0
   -0.7756   -0.6124   -0.0585 C   0  0  0  0  0  0  0  0  0  0  0  0
   -1.2740    0.2338    0.7007 O   0  0  0  0  0  0  0  0  0  0  0  0
   -1.5780   -1.5934   -0.8092 C   0  0  0  0  0  0  0  0  0  0  0  0
   -3.0455   -1.4697   -0.5729 C   0  0  0  0  0  0  0  0  0  0  0  0
   -3.5397   -0.1384   -0.9704 C   0  0  0  0  0  0  0  0  0  0  0  0
   -4.9067    0.2313   -0.8360 N   0  0  0  0  0  0  0  0  0  0  0  0
   -2.7311    0.6954   -1.4421 O   0  0  0  0  0  0  0  0  0  0  0  0
    4.0165   -0.8294    0.2330 C   0  0  0  0  0  0  0  0  0  0  0  0
    4.5719    0.7040    0.4335 C   0  0  1  0  0  0  0  0  0  0  0  0
    6.0565    0.4072   -0.2108 C   0  0  0  0  0  0  0  0  0  0  0  0
    6.6997   -0.5969    0.5538 N   0  0  0  0  0  0  0  0  0  0  0  0
    6.5772   -1.8887    0.2790 N   0  0  0  0  0  0  0  0  0  0  0  0
    7.2832   -2.6058    1.1515 C   0  0  0  0  0  0  0  0  0  0  0  0
    7.8575   -1.7302    1.9884 N   0  0  0  0  0  0  0  0  0  0  0  0
    7.4893   -0.5250    1.6060 N   0  0  0  0  0  0  0  0  0  0  0  0
    3.9831    1.1998   -0.9176 N   0  0  0  0  0  0  0  0  0  0  0  0
    2.5734    1.0536   -0.9494 C   0  0  0  0  0  0  0  0  0  0  0  0
    1.9616    1.4577   -2.0841 N   0  0  0  0  0  0  0  0  0  0  0  0
    0.6276    1.3507   -2.1953 C   0  0  0  0  0  0  0  0  0  0  0  0
   -0.1587    0.8313   -1.1691 C   0  0  0  0  0  0  0  0  0  0  0  0
   -1.5122    0.7143   -1.2655 C   0  0  0  0  0  0  0  0  0  0  0  0
   -2.2843    0.1740   -0.1895 C   0  0  0  0  0  0  0  0  0  0  0  0
   -3.5702    0.0790   -0.3203 O   0  0  0  0  0  0  0  0  0  0  0  0
   -4.8328   -0.0142   -0.4486 C   0  0  0  0  0  0  0  0  0  0  0  0
   -5.4343    0.4263   -1.6603 C   0  0  0  0  0  0  0  0  0  0  0  0
   -6.7809    0.3233   -1.7890 C   0  0  0  0  0  0  0  0  0  0  0  0
   -7.5544   -0.1963   -0.7710 C   0  0  0  0  0  0  0  0  0  0  0  0
   -8.8882   -0.2592   -0.9918 F   0  0  0  0  0  0  0  0  0  0  0  0
   -6.9880   -0.6229    0.3979 C   0  0  0  0  0  0  0  0  0  0  0  0
   -5.6388   -0.5387    0.5721 C   0  0  0  0  0  0  0  0  0  0  0  0
   -5.0625   -0.9662    1.7460 F   0  0  0  0  0  0  0  0  0  0  0  0
   -1.5166   -0.1976    0.9111 C   0  0  0  0  0  0  0  0  0  0  0  0
   -2.1603   -0.6843    1.8947 O   0  0  0  0  0  0  0  0  0  0  0  0
   -0.1821   -0.0721    0.9820 N   0  0  0  0  0  0  0  0  0  0  0  0
    0.5116   -0.5022    2.2022 C   0  0  0  0  0  0  0  0  0  0  0  0
    0.5144    0.4360   -0.0383 C   0  0  0  0  0  0  0  0  0  0  0  0
    1.8409    0.5519    0.0495 N   0  0  0  0  0  0  0  0  0  0  0  0
  1  2  1  0
  2  3  1  0
  2  4  1  0
  4  5  1  0
  5  6  1  0
  6  7  1  0
  7  8  2  0
  7  9  1  0
  9 10  1  0
 10 11  1  0
 11 12  1  0
 11 13  2  0
 15 14  1  1
 15 16  1  0
 16 17  1  0
 17 18  1  0
 18 19  2  0
 19 20  1  0
 20 21  2  0
 15 22  1  0
 22 23  1  0
 23 24  2  0
 24 25  1  0
 25 26  2  0
 26 27  1  0
 27 28  2  0
 28 29  1  0
 29 30  1  0
 30 31  2  0
 31 32  1  0
 32 33  2  0
 33 34  1  0
 33 35  1  0
 35 36  2  0
 36 37  1  0
 28 38  1  0
 38 39  2  0
 38 40  1  0
 40 41  1  0
 40 42  1  0
 42 43  2  0
 21 17  1  0
 43 23  1  0
 42 26  1  0
 36 30  1  0
M  END

