
     RDKit          3D

 11 10  0  0  0  0  0  0  0  0999 V2000
   -3.4606    1.3179   -0.1895 C   0  0  0  0  0  0  0  0  0  0  0  0
   -3.2239   -0.0847    0.2321 C   0  0  0  0  0  0  0  0  0  0  0  0
   -4.0440   -0.5432    1.3882 C   0  0  0  0  0  0  0  0  0  0  0  0
   -1.7758   -0.4731    0.3204 C   0  0  0  0  0  0  0  0  0  0  0  0
   -1.1497   -0.3047   -1.0149 C   0  0  0  0  0  0  0  0  0  0  0  0
    0.2329   -0.6360   -1.0922 N   0  0  0  0  0  0  0  0  0  0  0  0
    1.2740   -0.0392   -0.3610 C   0  0  0  0  0  0  0  0  0  0  0  0
    0.9484    0.8738    0.4362 O   0  0  0  0  0  0  0  0  0  0  0  0
    2.7042   -0.4232   -0.4795 C   0  0  0  0  0  0  0  0  0  0  0  0
    3.5926    0.3769    0.4158 C   0  0  0  0  0  0  0  0  0  0  0  0
    4.9018   -0.0645    0.2235 O   0  0  0  0  0  0  0  0  0  0  0  0
  1  2  1  0
  2  3  1  0
  2  4  1  0
  4  5  1  0
  5  6  1  0
  6  7  1  0
  7  8  2  0
  7  9  1  0
  9 10  1  0
 10 11  1  0
M  END

