
     RDKit          3D

 42 46  0  0  0  0  0  0  0  0999 V2000
    4.1097   -3.0687   -0.9739 C   0  0  0  0  0  0  0  0  0  0  0  0
    5.0350   -1.7191   -0.8512 C   0  0  2  0  0  0  0  0  0  0  0  0
    4.7032   -1.4869    0.7340 C   0  0  0  0  0  0  0  0  0  0  0  0
    5.4594   -0.2961    1.0340 N   0  0  0  0  0  0  0  0  0  0  0  0
    5.0435    0.9557    0.9379 N   0  0  0  0  0  0  0  0  0  0  0  0
    6.0810    1.7384    1.3186 C   0  0  0  0  0  0  0  0  0  0  0  0
    7.1037    0.9109    1.6361 N   0  0  0  0  0  0  0  0  0  0  0  0
    6.7196   -0.3243    1.4610 N   0  0  0  0  0  0  0  0  0  0  0  0
    3.9320   -0.7549   -1.3802 N   0  0  0  0  0  0  0  0  0  0  0  0
    2.6928   -0.6822   -0.7255 C   0  0  0  0  0  0  0  0  0  0  0  0
    2.4348   -1.4272    0.3489 N   0  0  0  0  0  0  0  0  0  0  0  0
    1.2635   -1.3639    0.9744 C   0  0  0  0  0  0  0  0  0  0  0  0
    0.2832   -0.5111    0.5107 C   0  0  0  0  0  0  0  0  0  0  0  0
   -0.9472   -0.4026    1.1159 C   0  0  0  0  0  0  0  0  0  0  0  0
   -1.8696    0.4682    0.5952 C   0  0  0  0  0  0  0  0  0  0  0  0
   -3.0920    0.5699    1.2039 O   0  0  0  0  0  0  0  0  0  0  0  0
   -4.3019    0.3068    0.6091 C   0  0  0  0  0  0  0  0  0  0  0  0
   -4.4500   -0.1021   -0.7036 C   0  0  0  0  0  0  0  0  0  0  0  0
   -5.7155   -0.3450   -1.2197 C   0  0  0  0  0  0  0  0  0  0  0  0
   -6.8542   -0.1963   -0.4752 C   0  0  0  0  0  0  0  0  0  0  0  0
   -8.1056   -0.4235   -0.9424 F   0  0  0  0  0  0  0  0  0  0  0  0
   -6.7154    0.2122    0.8384 C   0  0  0  0  0  0  0  0  0  0  0  0
   -5.4547    0.4541    1.3522 C   0  0  0  0  0  0  0  0  0  0  0  0
   -5.4029    0.8551    2.6604 F   0  0  0  0  0  0  0  0  0  0  0  0
   -1.5502    1.2114   -0.5139 C   0  0  0  0  0  0  0  0  0  0  0  0
   -2.3860    2.0224   -1.0129 O   0  0  0  0  0  0  0  0  0  0  0  0
   -0.3565    1.1065   -1.1015 N   0  0  0  0  0  0  0  0  0  0  0  0
   -0.0067    1.8882   -2.2764 C   0  0  0  0  0  0  0  0  0  0  0  0
    0.5739    0.2567   -0.6114 C   0  0  0  0  0  0  0  0  0  0  0  0
    1.7732    0.1474   -1.1970 N   0  0  0  0  0  0  0  0  0  0  0  0
   -0.3880    1.8333   -0.2320 O   0  0  0  0  0  0  0  0  0  0  0  0
   -0.0807    0.6696    0.0529 C   0  0  0  0  0  0  0  0  0  0  0  0
   -1.1031   -0.3305    0.7295 C   0  0  2  0  0  0  0  0  0  0  0  0
   -1.5292   -1.0269   -0.6850 C   0  0  0  0  0  0  0  0  0  0  0  0
   -2.9021   -0.6223   -0.9163 C   0  0  0  0  0  0  0  0  0  0  0  0
   -3.4086   -0.1938    0.4438 C   0  0  0  0  0  0  0  0  0  0  0  0
   -2.3024    0.6584    0.8023 N   0  0  0  0  0  0  0  0  0  0  0  0
    1.2096    0.1713   -0.2141 N   0  0  0  0  0  0  0  0  0  0  0  0
    1.5837   -1.1735    0.1087 C   0  0  0  0  0  0  0  0  0  0  0  0
    3.0806   -1.1196    0.3463 C   0  0  0  0  0  0  0  0  0  0  0  0
    3.4722    0.3450    0.1431 C   0  0  0  0  0  0  0  0  0  0  0  0
    2.3681    0.7890   -0.8089 C   0  0  0  0  0  0  0  0  0  0  0  0
  2  1  1  6
  2  3  1  0
  3  4  1  0
  4  5  1  0
  5  6  2  0
  6  7  1  0
  7  8  2  0
  2  9  1  0
  9 10  1  0
 10 11  2  0
 11 12  1  0
 12 13  2  0
 13 14  1  0
 14 15  2  0
 15 16  1  0
 16 17  1  0
 17 18  2  0
 18 19  1  0
 19 20  2  0
 20 21  1  0
 20 22  1  0
 22 23  2  0
 23 24  1  0
 15 25  1  0
 25 26  2  0
 25 27  1  0
 27 28  1  0
 27 29  1  0
 29 30  2  0
 31 32  2  0
 33 32  1  6
 33 34  1  0
 34 35  1  0
 35 36  1  0
 36 37  1  0
 32 38  1  0
 38 39  1  0
 39 40  1  0
 40 41  1  0
 41 42  1  0
  8  4  1  0
 30 10  1  0
 37 33  1  0
 42 38  1  0
 29 13  1  0
 23 17  1  0
M  END

