
     RDKit          3D

 13 12  0  0  0  0  0  0  0  0999 V2000
   -2.4958    0.9442    0.8449 C   0  0  0  0  0  0  0  0  0  0  0  0
   -3.3345   -0.0926    0.1934 C   0  0  0  0  0  0  0  0  0  0  0  0
   -4.6849   -0.1653    0.8763 C   0  0  0  0  0  0  0  0  0  0  0  0
   -2.8021   -1.4368    0.0084 C   0  0  0  0  0  0  0  0  0  0  0  0
   -1.6142   -1.7084   -0.7729 C   0  0  0  0  0  0  0  0  0  0  0  0
   -0.3628   -1.1123   -0.2947 C   0  0  0  0  0  0  0  0  0  0  0  0
   -0.2658   -0.4826    0.7866 O   0  0  0  0  0  0  0  0  0  0  0  0
    0.8548   -1.2264   -1.0718 N   0  0  0  0  0  0  0  0  0  0  0  0
    2.0792   -0.6379   -0.5946 C   0  0  0  0  0  0  0  0  0  0  0  0
    1.9522    0.8337   -0.4175 C   0  0  0  0  0  0  0  0  0  0  0  0
    3.1835    1.4797    0.0703 C   0  0  0  0  0  0  0  0  0  0  0  0
    3.3180    2.8647    0.3179 N   0  0  0  0  0  0  0  0  0  0  0  0
    4.1725    0.7400    0.2761 O   0  0  0  0  0  0  0  0  0  0  0  0
  1  2  1  0
  2  3  1  0
  2  4  1  0
  4  5  1  0
  5  6  1  0
  6  7  2  0
  6  8  1  0
  8  9  1  0
  9 10  1  0
 10 11  1  0
 11 12  1  0
 11 13  2  0
M  END

