
     RDKit          3D

 13 12  0  0  0  0  0  0  0  0999 V2000
    4.1468    1.4718    1.0456 C   0  0  0  0  0  0  0  0  0  0  0  0
    3.4485    0.1365    1.0410 C   0  0  0  0  0  0  0  0  0  0  0  0
    4.4447   -0.9202    0.6123 C   0  0  0  0  0  0  0  0  0  0  0  0
    2.2891    0.1152    0.0696 C   0  0  0  0  0  0  0  0  0  0  0  0
    1.5925   -1.2271    0.0695 C   0  0  0  0  0  0  0  0  0  0  0  0
    0.4891   -1.2122   -0.8705 N   0  0  0  0  0  0  0  0  0  0  0  0
   -0.5992   -0.3039   -0.7521 C   0  0  0  0  0  0  0  0  0  0  0  0
   -0.6429    0.5309    0.1868 O   0  0  0  0  0  0  0  0  0  0  0  0
   -1.6649   -0.3953   -1.7838 C   0  0  0  0  0  0  0  0  0  0  0  0
   -2.7398    0.6262   -1.5187 C   0  0  0  0  0  0  0  0  0  0  0  0
   -3.3571    0.4088   -0.1941 C   0  0  0  0  0  0  0  0  0  0  0  0
   -4.3778    1.2746    0.2119 O   0  0  0  0  0  1  0  0  0  0  0  0
   -3.0289   -0.5054    0.6013 O   0  0  0  0  0  0  0  0  0  0  0  0
  1  2  1  0
  2  3  1  0
  2  4  1  0
  4  5  1  0
  5  6  1  0
  6  7  1  0
  7  8  2  0
  7  9  1  0
  9 10  1  0
 10 11  1  0
 11 12  1  0
 11 13  2  0
M  RAD  1  12   2
M  END

