
     RDKit          3D

 48 51  0  0  0  0  0  0  0  0999 V2000
   -4.0684   -1.1099   -2.8109 C   0  0  0  0  0  0  0  0  0  0  0  0
   -4.8915   -1.0584   -1.3696 C   0  0  2  0  0  0  0  0  0  0  0  0
   -4.3315    0.4514   -0.9848 C   0  0  0  0  0  0  0  0  0  0  0  0
   -4.9660    0.6899    0.3019 N   0  0  0  0  0  0  0  0  0  0  0  0
   -6.1388    1.2513    0.5093 N   0  0  0  0  0  0  0  0  0  0  0  0
   -6.3980    1.3048    1.8241 C   0  0  0  0  0  0  0  0  0  0  0  0
   -5.3440    0.7554    2.4467 N   0  0  0  0  0  0  0  0  0  0  0  0
   -4.4920    0.3916    1.5040 N   0  0  0  0  0  0  0  0  0  0  0  0
   -3.7772   -1.8246   -0.5623 N   0  0  0  0  0  0  0  0  0  0  0  0
   -2.4892   -1.3223   -0.5120 C   0  0  0  0  0  0  0  0  0  0  0  0
   -2.0878   -0.1769   -1.1254 N   0  0  0  0  0  0  0  0  0  0  0  0
   -0.8257    0.2825   -1.0552 C   0  0  0  0  0  0  0  0  0  0  0  0
    0.1136   -0.4279   -0.3336 C   0  0  0  0  0  0  0  0  0  0  0  0
    1.4259   -0.0179   -0.2177 C   0  0  0  0  0  0  0  0  0  0  0  0
    2.2984   -0.7822    0.5190 C   0  0  0  0  0  0  0  0  0  0  0  0
    3.6333   -0.4730    0.7056 O   0  0  0  0  0  0  0  0  0  0  0  0
    4.2681    0.6266    0.1884 C   0  0  0  0  0  0  0  0  0  0  0  0
    5.3365    0.4240   -0.6586 C   0  0  0  0  0  0  0  0  0  0  0  0
    6.0434    1.4600   -1.2324 C   0  0  0  0  0  0  0  0  0  0  0  0
    5.6764    2.7610   -0.9553 C   0  0  0  0  0  0  0  0  0  0  0  0
    6.3728    3.8002   -1.5208 F   0  0  0  0  0  0  0  0  0  0  0  0
    4.6194    2.9840   -0.1175 C   0  0  0  0  0  0  0  0  0  0  0  0
    3.9122    1.9336    0.4565 C   0  0  0  0  0  0  0  0  0  0  0  0
    2.8609    2.1778    1.2896 F   0  0  0  0  0  0  0  0  0  0  0  0
    1.8319   -1.9352    1.1185 C   0  0  0  0  0  0  0  0  0  0  0  0
    2.6137   -2.6684    1.8094 O   0  0  0  0  0  0  0  0  0  0  0  0
    0.5625   -2.3415    1.0125 N   0  0  0  0  0  0  0  0  0  0  0  0
    0.0922   -3.5743    1.6617 C   0  0  0  0  0  0  0  0  0  0  0  0
   -0.2894   -1.5858    0.2872 C   0  0  0  0  0  0  0  0  0  0  0  0
   -1.5617   -1.9957    0.1827 N   0  0  0  0  0  0  0  0  0  0  0  0
    5.1679    1.3350   -2.3631 N   0  0  0  0  0  0  0  0  0  0  0  0
    4.9503    0.7371   -1.0964 C   0  0  0  0  0  0  0  0  0  0  0  0
    5.5952   -0.3162   -0.8429 O   0  0  0  0  0  0  0  0  0  0  0  0
    3.9968    1.3572   -0.1413 C   0  0  0  0  0  0  0  0  0  0  0  0
    3.9992    0.4706    1.1111 C   0  0  0  0  0  0  0  0  0  0  0  0
    3.5496   -0.9017    0.6449 C   0  0  0  0  0  0  0  0  0  0  0  0
    2.2424   -0.8910    0.0624 N   0  0  0  0  0  0  0  0  0  0  0  0
    1.0629   -0.4885    0.7296 C   0  0  0  0  0  0  0  0  0  0  0  0
    1.1366   -0.1093    1.9157 O   0  0  0  0  0  0  0  0  0  0  0  0
   -0.2435   -0.5133    0.0398 C   0  0  0  0  0  0  0  0  0  0  0  0
   -1.3117   -0.0411    0.9710 C   0  0  0  0  0  0  0  0  0  0  0  0
   -2.6583   -0.0387    0.3449 C   0  0  0  0  0  0  0  0  0  0  0  0
   -3.1794    1.0437   -0.3313 C   0  0  0  0  0  0  0  0  0  0  0  0
   -4.4393    1.0066   -0.9013 C   0  0  0  0  0  0  0  0  0  0  0  0
   -5.2265   -0.1228   -0.8137 C   0  0  0  0  0  0  0  0  0  0  0  0
   -6.4967   -0.1424   -1.3955 O   0  0  0  0  0  0  0  0  0  0  0  0
   -4.7059   -1.2063   -0.1373 C   0  0  0  0  0  0  0  0  0  0  0  0
   -3.4396   -1.1788    0.4395 C   0  0  0  0  0  0  0  0  0  0  0  0
  2  1  1  6
  2  3  1  0
  3  4  1  0
  4  5  1  0
  5  6  2  0
  6  7  1  0
  7  8  2  0
  2  9  1  0
  9 10  1  0
 10 11  2  0
 11 12  1  0
 12 13  2  0
 13 14  1  0
 14 15  2  0
 15 16  1  0
 16 17  1  0
 17 18  2  0
 18 19  1  0
 19 20  2  0
 20 21  1  0
 20 22  1  0
 22 23  2  0
 23 24  1  0
 15 25  1  0
 25 26  2  0
 25 27  1  0
 27 28  1  0
 27 29  1  0
 29 30  2  0
 31 32  1  0
 32 33  2  0
 32 34  1  0
 34 35  1  0
 35 36  1  0
 36 37  1  0
 37 38  1  0
 38 39  2  0
 38 40  1  0
 40 41  1  0
 41 42  1  0
 42 43  2  0
 43 44  1  0
 44 45  2  0
 45 46  1  0
 45 47  1  0
 47 48  2  0
  8  4  1  0
 30 10  1  0
 48 42  1  0
 29 13  1  0
 23 17  1  0
M  END

