
     RDKit          3D

 43 45  0  0  0  0  0  0  0  0999 V2000
   -4.0682   -1.6821    0.2690 C   0  0  0  0  0  0  0  0  0  0  0  0
   -3.4921   -0.2967    0.3297 C   0  0  0  0  0  0  0  0  0  0  0  0
   -3.2439    0.1361   -1.2261 C   0  0  2  0  0  0  0  0  0  0  0  0
   -2.2178   -1.0857   -1.5430 C   0  0  0  0  0  0  0  0  0  0  0  0
   -2.0963    1.2379   -0.9341 C   0  0  0  0  0  0  0  0  0  0  0  0
   -0.9629    0.6606   -0.2675 C   0  0  0  0  0  0  0  0  0  0  0  0
   -0.8595   -0.5312    0.1037 O   0  0  0  0  0  0  0  0  0  0  0  0
    0.1768    1.4666    0.0249 N   0  0  0  0  0  0  0  0  0  0  0  0
    1.3503    0.9405    0.6953 C   0  0  0  0  0  0  0  0  0  0  0  0
    1.9626   -0.1906   -0.1147 C   0  0  0  0  0  0  0  0  0  0  0  0
    3.1644   -0.7741    0.5111 C   0  0  0  0  0  0  0  0  0  0  0  0
    4.4241    0.5441    0.6879 S   0  0  0  0  0  0  0  0  0  0  0  0
    5.8626   -0.2632    1.4638 C   0  0  0  0  0  0  0  0  0  0  0  0
    4.1015    1.6657    1.7272 C   0  0  0  0  0  0  0  0  0  0  0  0
    4.3330    0.2163    2.4343 C   0  0  2  0  0  0  0  0  0  0  0  0
    3.9912   -0.6248    1.0853 C   0  0  0  0  0  0  0  0  0  0  0  0
    4.9901   -0.1616    0.1408 N   0  0  0  0  0  0  0  0  0  0  0  0
    6.1774   -0.7230   -0.0160 N   0  0  0  0  0  0  0  0  0  0  0  0
    6.8775   -0.0707   -0.9624 C   0  0  0  0  0  0  0  0  0  0  0  0
    6.0900    0.9274   -1.4020 N   0  0  0  0  0  0  0  0  0  0  0  0
    4.9673    0.8353   -0.7128 N   0  0  0  0  0  0  0  0  0  0  0  0
    2.9232    0.0693    3.0405 N   0  0  0  0  0  0  0  0  0  0  0  0
    1.7679    0.0807    2.2771 C   0  0  0  0  0  0  0  0  0  0  0  0
    0.5839   -0.0513    2.8680 N   0  0  0  0  0  0  0  0  0  0  0  0
   -0.5831   -0.0520    2.2125 C   0  0  0  0  0  0  0  0  0  0  0  0
   -0.5610    0.0924    0.8444 C   0  0  0  0  0  0  0  0  0  0  0  0
   -1.7487    0.0943    0.1516 C   0  0  0  0  0  0  0  0  0  0  0  0
   -1.7528    0.2375   -1.2203 C   0  0  0  0  0  0  0  0  0  0  0  0
   -2.9384    0.2454   -1.9684 O   0  0  0  0  0  0  0  0  0  0  0  0
   -4.1458    0.1073   -1.3332 C   0  0  0  0  0  0  0  0  0  0  0  0
   -5.1542    1.0261   -1.3627 C   0  0  0  0  0  0  0  0  0  0  0  0
   -6.3209    0.7805   -0.6883 C   0  0  0  0  0  0  0  0  0  0  0  0
   -6.5505   -0.3687    0.0406 C   0  0  0  0  0  0  0  0  0  0  0  0
   -7.7249   -0.5384    0.6776 F   0  0  0  0  0  0  0  0  0  0  0  0
   -5.5270   -1.3097    0.0751 C   0  0  0  0  0  0  0  0  0  0  0  0
   -4.3515   -1.0639   -0.6035 C   0  0  0  0  0  0  0  0  0  0  0  0
   -3.3614   -2.0047   -0.5536 F   0  0  0  0  0  0  0  0  0  0  0  0
   -0.5247    0.3742   -1.8318 C   0  0  0  0  0  0  0  0  0  0  0  0
   -0.5231    0.5053   -3.0852 O   0  0  0  0  0  0  0  0  0  0  0  0
    0.6354    0.3694   -1.1272 N   0  0  0  0  0  0  0  0  0  0  0  0
    1.8857    0.5186   -1.8460 C   0  0  0  0  0  0  0  0  0  0  0  0
    0.6610    0.2317    0.2048 C   0  0  0  0  0  0  0  0  0  0  0  0
    1.7829    0.2220    0.9339 N   0  0  0  0  0  0  0  0  0  0  0  0
  1  2  1  0
  2  3  1  0
  3  4  1  6
  3  5  1  0
  5  6  1  0
  6  7  2  0
  6  8  1  0
  8  9  1  0
  9 10  1  0
 10 11  1  0
 11 12  1  0
 12 13  1  0
 15 14  1  6
 15 16  1  0
 16 17  1  0
 17 18  1  0
 18 19  2  0
 19 20  1  0
 20 21  2  0
 15 22  1  0
 22 23  1  0
 23 24  2  0
 24 25  1  0
 25 26  2  0
 26 27  1  0
 27 28  2  0
 28 29  1  0
 29 30  1  0
 30 31  2  0
 31 32  1  0
 32 33  2  0
 33 34  1  0
 33 35  1  0
 35 36  2  0
 36 37  1  0
 28 38  1  0
 38 39  2  0
 38 40  1  0
 40 41  1  0
 40 42  1  0
 42 43  2  0
 21 17  1  0
 43 23  1  0
 42 26  1  0
 36 30  1  0
M  END

