
     RDKit          3D

 42 44  0  0  0  0  0  0  0  0999 V2000
   -4.5005    0.1948   -0.9935 C   0  0  0  0  0  0  0  0  0  0  0  0
   -2.8576    0.3419   -1.0625 C   0  0  1  0  0  0  0  0  0  0  0  0
   -2.8605    1.5698   -0.1708 O   0  0  0  0  0  0  0  0  0  0  0  0
   -2.6403   -0.7483    0.1556 C   0  0  0  0  0  0  0  0  0  0  0  0
   -1.4282   -0.4524    0.8057 N   0  0  0  0  0  0  0  0  0  0  0  0
   -0.2094   -0.4638    0.1386 C   0  0  0  0  0  0  0  0  0  0  0  0
   -0.2156   -0.7494   -1.0793 O   0  0  0  0  0  0  0  0  0  0  0  0
    1.0298   -0.1436    0.8786 C   0  0  0  0  0  0  0  0  0  0  0  0
    2.1827   -0.2267   -0.0615 C   0  0  0  0  0  0  0  0  0  0  0  0
    3.4529    0.0876    0.6373 C   0  0  0  0  0  0  0  0  0  0  0  0
    4.0394    1.3441    0.4503 O   0  0  0  0  0  1  0  0  0  0  0  0
    4.0073   -0.7540    1.3911 O   0  0  0  0  0  0  0  0  0  0  0  0
   -5.7305   -1.2415    2.1286 C   0  0  0  0  0  0  0  0  0  0  0  0
   -4.1738   -0.6781    2.0342 C   0  0  2  0  0  0  0  0  0  0  0  0
   -4.6215    0.8359    1.5607 C   0  0  0  0  0  0  0  0  0  0  0  0
   -5.3423    0.7246    0.3474 N   0  0  0  0  0  0  0  0  0  0  0  0
   -4.7837    0.7665   -0.8396 N   0  0  0  0  0  0  0  0  0  0  0  0
   -5.7084    0.6360   -1.8046 C   0  0  0  0  0  0  0  0  0  0  0  0
   -6.8670    0.5109   -1.1677 N   0  0  0  0  0  0  0  0  0  0  0  0
   -6.6457    0.5642    0.1238 N   0  0  0  0  0  0  0  0  0  0  0  0
   -3.9520   -1.2226    0.5670 N   0  0  0  0  0  0  0  0  0  0  0  0
   -2.6439   -0.9288    0.0698 C   0  0  0  0  0  0  0  0  0  0  0  0
   -2.3786   -1.3557   -1.1629 N   0  0  0  0  0  0  0  0  0  0  0  0
   -1.1738   -1.1256   -1.7152 C   0  0  0  0  0  0  0  0  0  0  0  0
   -0.1906   -0.4518   -1.0351 C   0  0  0  0  0  0  0  0  0  0  0  0
    1.0519   -0.1859   -1.5382 C   0  0  0  0  0  0  0  0  0  0  0  0
    1.9458    0.5014   -0.7461 C   0  0  0  0  0  0  0  0  0  0  0  0
    3.1998    0.7588   -1.2793 O   0  0  0  0  0  0  0  0  0  0  0  0
    4.2987    0.2276   -0.5875 C   0  0  0  0  0  0  0  0  0  0  0  0
    4.1560   -0.5149    0.5654 C   0  0  0  0  0  0  0  0  0  0  0  0
    5.2234   -1.0443    1.2578 C   0  0  0  0  0  0  0  0  0  0  0  0
    6.5077   -0.8382    0.8000 C   0  0  0  0  0  0  0  0  0  0  0  0
    7.5943   -1.3426    1.4521 F   0  0  0  0  0  0  0  0  0  0  0  0
    6.6608   -0.0967   -0.3524 C   0  0  0  0  0  0  0  0  0  0  0  0
    5.5935    0.4330   -1.0455 C   0  0  0  0  0  0  0  0  0  0  0  0
    5.7360    1.1633   -2.1797 F   0  0  0  0  0  0  0  0  0  0  0  0
    1.6063    0.9148    0.5221 C   0  0  0  0  0  0  0  0  0  0  0  0
    2.4342    1.5504    1.2535 O   0  0  0  0  0  0  0  0  0  0  0  0
    0.3817    0.6499    1.0114 N   0  0  0  0  0  0  0  0  0  0  0  0
    0.0176    1.0871    2.3573 C   0  0  0  0  0  0  0  0  0  0  0  0
   -0.4884   -0.0200    0.2383 C   0  0  0  0  0  0  0  0  0  0  0  0
   -1.7075   -0.2777    0.7392 N   0  0  0  0  0  0  0  0  0  0  0  0
  2  1  1  1
  2  3  1  0
  2  4  1  0
  4  5  1  0
  5  6  1  0
  6  7  2  0
  6  8  1  0
  8  9  1  0
  9 10  1  0
 10 11  1  0
 10 12  2  0
 14 13  1  6
 14 15  1  0
 15 16  1  0
 16 17  1  0
 17 18  2  0
 18 19  1  0
 19 20  2  0
 14 21  1  0
 21 22  1  0
 22 23  2  0
 23 24  1  0
 24 25  2  0
 25 26  1  0
 26 27  2  0
 27 28  1  0
 28 29  1  0
 29 30  2  0
 30 31  1  0
 31 32  2  0
 32 33  1  0
 32 34  1  0
 34 35  2  0
 35 36  1  0
 27 37  1  0
 37 38  2  0
 37 39  1  0
 39 40  1  0
 39 41  1  0
 41 42  2  0
 20 16  1  0
 42 22  1  0
 41 25  1  0
 35 29  1  0
M  RAD  1  11   2
M  END

