
     RDKit          3D

 13 12  0  0  0  0  0  0  0  0999 V2000
    4.8166    1.6159   -0.7674 C   0  0  0  0  0  0  0  0  0  0  0  0
    3.0642    1.5067   -1.2639 S   0  0  0  0  0  0  0  0  0  0  0  0
    2.4073   -0.1673   -0.9518 C   0  0  0  0  0  0  0  0  0  0  0  0
    2.3715   -0.4413    0.5541 C   0  0  0  0  0  0  0  0  0  0  0  0
    1.8272   -1.8187    0.7383 C   0  0  0  0  0  0  0  0  0  0  0  0
    0.5067   -1.9186    0.1886 N   0  0  0  0  0  0  0  0  0  0  0  0
   -0.5867   -1.1102    0.6435 C   0  0  0  0  0  0  0  0  0  0  0  0
   -0.3887   -0.2864    1.5522 O   0  0  0  0  0  0  0  0  0  0  0  0
   -1.8840   -1.2934    0.0164 C   0  0  0  0  0  0  0  0  0  0  0  0
   -3.0008   -0.4331    0.3355 C   0  0  0  0  0  0  0  0  0  0  0  0
   -2.9732    1.0093    0.0629 C   0  0  0  0  0  0  0  0  0  0  0  0
   -4.3187    1.5856    0.5249 C   0  0  0  0  0  0  0  0  0  0  0  0
   -1.8414    1.7515    0.6793 C   0  0  0  0  0  0  0  0  0  0  0  0
  1  2  1  0
  2  3  1  0
  3  4  1  0
  4  5  1  0
  5  6  1  0
  6  7  1  0
  7  8  2  0
  7  9  1  0
  9 10  1  0
 10 11  1  0
 11 12  1  0
 11 13  1  0
M  END

