
     RDKit          3D

 13 13  0  0  0  0  0  0  0  0999 V2000
    4.6661   -0.8704   -0.6283 N   0  0  0  0  0  4  0  0  0  0  0  0
    3.4564   -1.5470   -0.1325 C   0  0  0  0  0  0  0  0  0  0  0  0
    2.6475   -0.4670    0.5973 C   0  0  0  0  0  0  0  0  0  0  0  0
    2.3520    0.5965   -0.4624 C   0  0  0  0  0  0  0  0  0  0  0  0
    1.5485    1.7150    0.1720 C   0  0  0  0  0  0  0  0  0  0  0  0
    0.2690    1.1073    0.6926 C   0  0  0  0  0  0  0  0  0  0  0  0
   -0.4667    0.5066   -0.4376 C   0  0  0  0  0  0  0  0  0  0  0  0
    0.0218    0.5726   -1.5800 O   0  0  0  0  0  0  0  0  0  0  0  0
   -1.7176   -0.1340   -0.1937 N   0  0  0  0  0  0  0  0  0  0  0  0
   -2.5899   -0.7801   -1.1571 C   0  0  0  0  0  0  0  0  0  0  0  0
   -3.9895   -0.5736   -0.6044 C   0  0  0  0  0  0  0  0  0  0  0  0
   -3.8101    0.1497    0.7140 C   0  0  0  0  0  0  0  0  0  0  0  0
   -2.3877   -0.2755    1.0839 C   0  0  0  0  0  0  0  0  0  0  0  0
  1  2  1  0
  2  3  1  0
  3  4  1  0
  4  5  1  0
  5  6  1  0
  6  7  1  0
  7  8  2  0
  7  9  1  0
  9 10  1  0
 10 11  1  0
 11 12  1  0
 12 13  1  0
 13  9  1  0
M  CHG  1   1   1
M  END

