
     RDKit          3D

 44 46  0  0  0  0  0  0  0  0999 V2000
   -4.3018    0.0482    1.2217 C   0  0  0  0  0  0  0  0  0  0  0  0
   -4.9271    0.7165   -0.1638 C   0  0  2  0  0  0  0  0  0  0  0  0
   -6.0281   -0.4964   -0.4140 C   0  0  0  0  0  0  0  0  0  0  0  0
   -6.8731   -0.5082    0.7485 N   0  0  0  0  0  0  0  0  0  0  0  0
   -6.5787   -1.2515    1.8055 N   0  0  0  0  0  0  0  0  0  0  0  0
   -7.5052   -1.1029    2.7643 C   0  0  0  0  0  0  0  0  0  0  0  0
   -8.3910   -0.2286    2.2484 N   0  0  0  0  0  0  0  0  0  0  0  0
   -7.9832    0.1095    1.0372 N   0  0  0  0  0  0  0  0  0  0  0  0
   -3.8335    0.0328   -1.0810 N   0  0  0  0  0  0  0  0  0  0  0  0
   -2.4937    0.3660   -0.8062 C   0  0  0  0  0  0  0  0  0  0  0  0
   -2.2132    1.2173    0.1847 N   0  0  0  0  0  0  0  0  0  0  0  0
   -0.9648    1.5851    0.5093 C   0  0  0  0  0  0  0  0  0  0  0  0
    0.1251    1.0639   -0.2134 C   0  0  0  0  0  0  0  0  0  0  0  0
    1.3983    1.4038    0.0761 C   0  0  0  0  0  0  0  0  0  0  0  0
    2.4773    0.8402   -0.6958 C   0  0  0  0  0  0  0  0  0  0  0  0
    3.7067    1.2172   -0.3614 O   0  0  0  0  0  0  0  0  0  0  0  0
    4.8369    0.7450    0.1100 C   0  0  0  0  0  0  0  0  0  0  0  0
    5.2056    1.2226    1.3904 C   0  0  0  0  0  0  0  0  0  0  0  0
    6.3304    0.8440    2.0164 C   0  0  0  0  0  0  0  0  0  0  0  0
    7.1718   -0.0343    1.4213 C   0  0  0  0  0  0  0  0  0  0  0  0
    8.3221   -0.4297    2.0485 F   0  0  0  0  0  0  0  0  0  0  0  0
    6.8415   -0.5120    0.1837 C   0  0  0  0  0  0  0  0  0  0  0  0
    5.6810   -0.1275   -0.4746 C   0  0  0  0  0  0  0  0  0  0  0  0
    5.5046   -0.6561   -1.7116 F   0  0  0  0  0  0  0  0  0  0  0  0
    2.0562   -0.0124   -1.6774 C   0  0  0  0  0  0  0  0  0  0  0  0
    2.8939   -0.5759   -2.4343 O   0  0  0  0  0  0  0  0  0  0  0  0
    0.7832   -0.3451   -1.9574 N   0  0  0  0  0  0  0  0  0  0  0  0
    0.4440   -1.2796   -3.0430 C   0  0  0  0  0  0  0  0  0  0  0  0
   -0.1950    0.1937   -1.2233 C   0  0  0  0  0  0  0  0  0  0  0  0
   -1.4902   -0.1452   -1.5090 N   0  0  0  0  0  0  0  0  0  0  0  0
   -3.9672    1.7105    0.3997 N   0  0  0  0  0  0  0  0  0  0  0  0
   -3.3174    0.5211    0.0068 C   0  0  0  0  0  0  0  0  0  0  0  0
   -3.8667   -0.5725    0.2850 O   0  0  0  0  0  0  0  0  0  0  0  0
   -2.0322    0.5086   -0.7102 C   0  0  0  0  0  0  0  0  0  0  0  0
   -1.5933   -0.9088   -0.9912 C   0  0  0  0  0  0  0  0  0  0  0  0
   -1.4534   -1.5955    0.3718 C   0  0  0  0  0  0  0  0  0  0  0  0
   -0.4427   -0.8400    1.1259 N   0  0  0  0  0  0  0  0  0  0  0  0
    0.8891   -0.6998    0.6483 C   0  0  0  0  0  0  0  0  0  0  0  0
    1.1921   -1.2412   -0.4464 O   0  0  0  0  0  0  0  0  0  0  0  0
    1.8706    0.0751    1.4515 C   0  0  0  0  0  0  0  0  0  0  0  0
    3.2125    0.1054    0.7785 C   0  0  0  0  0  0  0  0  0  0  0  0
    3.1475    0.7293   -0.5591 C   0  0  0  0  0  0  0  0  0  0  0  0
    4.2896    0.8412   -1.3213 O   0  0  0  0  0  1  0  0  0  0  0  0
    2.0713    1.1707   -1.0392 O   0  0  0  0  0  0  0  0  0  0  0  0
  2  1  1  1
  2  3  1  0
  3  4  1  0
  4  5  1  0
  5  6  2  0
  6  7  1  0
  7  8  2  0
  2  9  1  0
  9 10  1  0
 10 11  2  0
 11 12  1  0
 12 13  2  0
 13 14  1  0
 14 15  2  0
 15 16  1  0
 16 17  1  0
 17 18  2  0
 18 19  1  0
 19 20  2  0
 20 21  1  0
 20 22  1  0
 22 23  2  0
 23 24  1  0
 15 25  1  0
 25 26  2  0
 25 27  1  0
 27 28  1  0
 27 29  1  0
 29 30  2  0
 31 32  1  0
 32 33  2  0
 32 34  1  0
 34 35  1  0
 35 36  1  0
 36 37  1  0
 37 38  1  0
 38 39  2  0
 38 40  1  0
 40 41  1  0
 41 42  1  0
 42 43  1  0
 42 44  2  0
  8  4  1  0
 30 10  1  0
 29 13  1  0
 23 17  1  0
M  RAD  1  43   2
M  END

