
     RDKit          3D

 44 46  0  0  0  0  0  0  0  0999 V2000
   -5.1281   -1.0161    0.2275 C   0  0  0  0  0  0  0  0  0  0  0  0
   -4.2036    0.2056    0.2384 C   0  0  0  0  0  0  0  0  0  0  0  0
   -4.8693    1.2858   -0.5767 C   0  0  0  0  0  0  0  0  0  0  0  0
   -2.8577   -0.1911   -0.3698 C   0  0  0  0  0  0  0  0  0  0  0  0
   -2.2975   -1.3099    0.4943 C   0  0  0  0  0  0  0  0  0  0  0  0
   -1.0234   -1.7721    0.0202 N   0  0  0  0  0  0  0  0  0  0  0  0
    0.1160   -0.9284   -0.0856 C   0  0  0  0  0  0  0  0  0  0  0  0
   -0.0315    0.2693    0.2589 O   0  0  0  0  0  0  0  0  0  0  0  0
    1.4274   -1.4147   -0.5763 C   0  0  0  0  0  0  0  0  0  0  0  0
    2.4375   -0.3099   -0.5798 C   0  0  0  0  0  0  0  0  0  0  0  0
    2.6678    0.2755    0.7911 C   0  0  0  0  0  0  0  0  0  0  0  0
    3.6631    1.3716    0.8186 C   0  0  0  0  0  0  0  0  0  0  0  0
    5.0339    0.9927    0.3511 C   0  0  0  0  0  0  0  0  0  0  0  0
    5.0655    0.5153   -1.0118 N   0  0  0  0  0  4  0  0  0  0  0  0
    5.5489   -3.6685   -0.2070 C   0  0  0  0  0  0  0  0  0  0  0  0
    4.8221   -2.3079   -0.9079 C   0  0  2  0  0  0  0  0  0  0  0  0
    5.8626   -1.3247   -0.0773 C   0  0  0  0  0  0  0  0  0  0  0  0
    5.5123    0.0133   -0.4567 N   0  0  0  0  0  0  0  0  0  0  0  0
    5.9406    0.7497   -1.4742 N   0  0  0  0  0  0  0  0  0  0  0  0
    5.3614    1.9617   -1.4182 C   0  0  0  0  0  0  0  0  0  0  0  0
    4.5589    1.9686   -0.3406 N   0  0  0  0  0  0  0  0  0  0  0  0
    4.6828    0.7816    0.2021 N   0  0  0  0  0  0  0  0  0  0  0  0
    3.7090   -2.2666    0.2087 N   0  0  0  0  0  0  0  0  0  0  0  0
    2.5915   -1.4565   -0.1324 C   0  0  0  0  0  0  0  0  0  0  0  0
    2.4793   -0.8058   -1.2954 N   0  0  0  0  0  0  0  0  0  0  0  0
    1.4063   -0.0505   -1.5780 C   0  0  0  0  0  0  0  0  0  0  0  0
    0.4055    0.0520   -0.6483 C   0  0  0  0  0  0  0  0  0  0  0  0
   -0.7097    0.8214   -0.9111 C   0  0  0  0  0  0  0  0  0  0  0  0
   -1.7007    0.9107    0.0336 C   0  0  0  0  0  0  0  0  0  0  0  0
   -2.8256    1.6760   -0.2101 O   0  0  0  0  0  0  0  0  0  0  0  0
   -4.0871    1.1056   -0.2146 C   0  0  0  0  0  0  0  0  0  0  0  0
   -4.2727   -0.2486    0.0239 C   0  0  0  0  0  0  0  0  0  0  0  0
   -5.5598   -0.7807    0.0100 C   0  0  0  0  0  0  0  0  0  0  0  0
   -6.6325    0.0189   -0.2356 C   0  0  0  0  0  0  0  0  0  0  0  0
   -7.9245   -0.4432   -0.2631 F   0  0  0  0  0  0  0  0  0  0  0  0
   -6.4434    1.3759   -0.4742 C   0  0  0  0  0  0  0  0  0  0  0  0
   -5.1650    1.9213   -0.4636 C   0  0  0  0  0  0  0  0  0  0  0  0
   -4.9272    3.2337   -0.6895 F   0  0  0  0  0  0  0  0  0  0  0  0
   -1.5306    0.2168    1.2167 C   0  0  0  0  0  0  0  0  0  0  0  0
   -2.4303    0.2970    2.0763 O   0  0  0  0  0  0  0  0  0  0  0  0
   -0.4573   -0.5307    1.4838 N   0  0  0  0  0  0  0  0  0  0  0  0
   -0.3263   -1.2484    2.7582 C   0  0  0  0  0  0  0  0  0  0  0  0
    0.5093   -0.6194    0.5653 C   0  0  0  0  0  0  0  0  0  0  0  0
    1.6021   -1.3528    0.7820 N   0  0  0  0  0  0  0  0  0  0  0  0
  1  2  1  0
  2  3  1  0
  2  4  1  0
  4  5  1  0
  5  6  1  0
  6  7  1  0
  7  8  2  0
  7  9  1  0
  9 10  1  0
 10 11  1  0
 11 12  1  0
 12 13  1  0
 13 14  1  0
 16 15  1  1
 16 17  1  0
 17 18  1  0
 18 19  1  0
 19 20  2  0
 20 21  1  0
 21 22  2  0
 16 23  1  0
 23 24  1  0
 24 25  2  0
 25 26  1  0
 26 27  2  0
 27 28  1  0
 28 29  2  0
 29 30  1  0
 30 31  1  0
 31 32  2  0
 32 33  1  0
 33 34  2  0
 34 35  1  0
 34 36  1  0
 36 37  2  0
 37 38  1  0
 29 39  1  0
 39 40  2  0
 39 41  1  0
 41 42  1  0
 41 43  1  0
 43 44  2  0
 22 18  1  0
 44 24  1  0
 43 27  1  0
 37 31  1  0
M  CHG  1  14   1
M  END

