
     RDKit          3D

 13 12  0  0  0  0  0  0  0  0999 V2000
   -3.3034   -1.3965   -1.7998 C   0  0  0  0  0  0  0  0  0  0  0  0
   -2.3352   -0.2335   -1.7455 C   0  0  0  0  0  0  0  0  0  0  0  0
   -1.8290   -0.0755   -0.3406 C   0  0  0  0  0  0  0  0  0  0  0  0
   -2.2173   -0.8493    0.5780 O   0  0  0  0  0  0  0  0  0  0  0  0
   -0.9024    0.9405    0.0083 N   0  0  0  0  0  0  0  0  0  0  0  0
   -0.4436    1.0440    1.4032 C   0  0  0  0  0  0  0  0  0  0  0  0
    0.5134    2.1982    1.4429 C   0  0  0  0  0  0  0  0  0  0  0  0
    1.7195    1.9925    0.5808 C   0  0  0  0  0  0  0  0  0  0  0  0
    2.5744    0.8526    0.9556 C   0  0  0  0  0  0  0  0  0  0  0  0
    2.0340   -0.4579    0.9257 N   0  0  0  0  0  0  0  0  0  0  0  0
    1.5554   -1.1100   -0.2344 C   0  0  0  0  0  0  0  0  0  0  0  0
    1.0296   -2.4290   -0.1653 N   0  0  0  0  0  0  0  0  0  0  0  0
    1.6045   -0.4760   -1.3801 N   0  0  0  0  0  4  0  0  0  0  0  0
  1  2  1  0
  2  3  1  0
  3  4  2  0
  3  5  1  0
  5  6  1  0
  6  7  1  0
  7  8  1  0
  8  9  1  0
  9 10  1  0
 10 11  1  0
 11 12  1  0
 11 13  2  0
M  CHG  1  13   1
M  END

