
     RDKit          3D

 17 17  0  0  0  0  0  0  0  0999 V2000
    5.2214   -1.8160    0.4836 N   0  0  0  0  0  0  0  0  0  0  0  0
    4.3696   -0.9267    1.1893 C   0  0  0  0  0  0  0  0  0  0  0  0
    4.3381   -0.8793    2.4517 O   0  0  0  0  0  0  0  0  0  0  0  0
    3.4690   -0.0038    0.4544 C   0  0  0  0  0  0  0  0  0  0  0  0
    2.6536    0.8505    1.3808 C   0  0  0  0  0  0  0  0  0  0  0  0
    1.7981    1.7262    0.6071 N   0  0  0  0  0  0  0  0  0  0  0  0
    0.8163    1.1972   -0.3033 C   0  0  0  0  0  0  0  0  0  0  0  0
    0.7722   -0.0582   -0.3622 O   0  0  0  0  0  0  0  0  0  0  0  0
   -0.0579    2.0675   -1.0943 C   0  0  0  0  0  0  0  0  0  0  0  0
   -1.0311    1.3717   -1.9754 C   0  0  0  0  0  0  0  0  0  0  0  0
   -1.9948    0.4903   -1.2685 C   0  0  0  0  0  0  0  0  0  0  0  0
   -3.2164    0.9916   -0.8020 C   0  0  0  0  0  0  0  0  0  0  0  0
   -4.1054    0.1641   -0.1513 C   0  0  0  0  0  0  0  0  0  0  0  0
   -3.8481   -1.1728    0.0720 C   0  0  0  0  0  0  0  0  0  0  0  0
   -4.7695   -1.9673    0.7300 O   0  0  0  0  0  0  0  0  0  0  0  0
   -2.6490   -1.6832   -0.3810 C   0  0  0  0  0  0  0  0  0  0  0  0
   -1.7659   -0.8477   -1.0310 C   0  0  0  0  0  0  0  0  0  0  0  0
  1  2  1  0
  2  3  2  0
  2  4  1  0
  4  5  1  0
  5  6  1  0
  6  7  1  0
  7  8  2  0
  7  9  1  0
  9 10  1  0
 10 11  1  0
 11 12  2  0
 12 13  1  0
 13 14  2  0
 14 15  1  0
 14 16  1  0
 16 17  2  0
 17 11  1  0
M  END

