
     RDKit          3D

 20 20  0  0  0  0  0  0  0  0999 V2000
   -7.0509   -1.5175   -0.1485 N   0  0  0  0  0  0  0  0  0  0  0  0
   -6.0806   -0.7679    0.5691 C   0  0  0  0  0  0  0  0  0  0  0  0
   -6.2653   -0.5889    1.8252 N   0  0  0  0  0  4  0  0  0  0  0  0
   -4.9432   -0.2312   -0.0701 N   0  0  0  0  0  0  0  0  0  0  0  0
   -3.9729    0.5219    0.6627 C   0  0  0  0  0  0  0  0  0  0  0  0
   -3.3329   -0.2793    1.7872 C   0  0  0  0  0  0  0  0  0  0  0  0
   -2.3314    0.6710    2.4582 C   0  0  0  0  0  0  0  0  0  0  0  0
   -1.3221    1.0780    1.3776 C   0  0  0  0  0  0  0  0  0  0  0  0
   -0.7084   -0.1789    0.9377 N   0  0  0  0  0  0  0  0  0  0  0  0
    0.2945   -0.1960   -0.0753 C   0  0  0  0  0  0  0  0  0  0  0  0
    0.6266    0.9010   -0.5699 O   0  0  0  0  0  0  0  0  0  0  0  0
    0.9334   -1.4427   -0.5422 C   0  0  0  0  0  0  0  0  0  0  0  0
    1.9786   -1.2480   -1.5726 C   0  0  0  0  0  0  0  0  0  0  0  0
    3.1291   -0.4334   -1.1879 C   0  0  0  0  0  0  0  0  0  0  0  0
    3.2237    0.9248   -1.3705 C   0  0  0  0  0  0  0  0  0  0  0  0
    4.3483    1.5994   -0.9743 C   0  0  0  0  0  0  0  0  0  0  0  0
    5.4221    0.9432   -0.3803 C   0  0  0  0  0  0  0  0  0  0  0  0
    6.5006    1.7299   -0.0235 O   0  0  0  0  0  0  0  0  0  0  0  0
    5.3428   -0.4074   -0.1921 C   0  0  0  0  0  0  0  0  0  0  0  0
    4.2080   -1.0781   -0.5935 C   0  0  0  0  0  0  0  0  0  0  0  0
  1  2  1  0
  2  3  2  0
  2  4  1  0
  4  5  1  0
  5  6  1  0
  6  7  1  0
  7  8  1  0
  8  9  1  0
  9 10  1  0
 10 11  2  0
 10 12  1  0
 12 13  1  0
 13 14  1  0
 14 15  2  0
 15 16  1  0
 16 17  2  0
 17 18  1  0
 17 19  1  0
 19 20  2  0
 20 14  1  0
M  CHG  1   3   1
M  END

