
     RDKit          3D

 12 11  0  0  0  0  0  0  0  0999 V2000
   -3.5537    1.9462   -0.8002 C   0  0  0  0  0  0  0  0  0  0  0  0
   -3.6814    0.5313   -0.3448 C   0  0  0  0  0  0  0  0  0  0  0  0
   -4.1584    0.3722    1.0599 C   0  0  0  0  0  0  0  0  0  0  0  0
   -2.4938   -0.3277   -0.6865 C   0  0  0  0  0  0  0  0  0  0  0  0
   -1.3380    0.2602   -0.0396 N   0  0  0  0  0  0  0  0  0  0  0  0
   -0.0806   -0.3816   -0.2173 C   0  0  0  0  0  0  0  0  0  0  0  0
   -0.0331   -1.4080   -0.9133 O   0  0  0  0  0  0  0  0  0  0  0  0
    1.1526    0.1590    0.4133 C   0  0  0  0  0  0  0  0  0  0  0  0
    2.3019   -0.7176    0.0514 C   0  0  0  0  0  0  0  0  0  0  0  0
    3.5621   -0.2546    0.6342 C   0  0  0  0  0  0  0  0  0  0  0  0
    4.7236   -0.9577    0.3943 O   0  0  0  0  0  1  0  0  0  0  0  0
    3.5989    0.7782    1.3523 O   0  0  0  0  0  0  0  0  0  0  0  0
  1  2  1  0
  2  3  1  0
  2  4  1  0
  4  5  1  0
  5  6  1  0
  6  7  2  0
  6  8  1  0
  8  9  1  0
  9 10  1  0
 10 11  1  0
 10 12  2  0
M  RAD  1  11   2
M  END

