
     RDKit          3D

 40 42  0  0  0  0  0  0  0  0999 V2000
   -4.3633   -0.9458    0.1039 C   0  0  0  0  0  0  0  0  0  0  0  0
   -3.3134    0.1165    0.0618 C   0  0  0  0  0  0  0  0  0  0  0  0
   -1.9297   -0.4740    0.0104 C   0  0  0  0  0  0  0  0  0  0  0  0
   -1.7604   -1.7199    0.0065 O   0  0  0  0  0  0  0  0  0  0  0  0
   -0.7874    0.3516   -0.0348 N   0  0  0  0  0  0  0  0  0  0  0  0
    0.5740   -0.1400   -0.0856 C   0  0  0  0  0  0  0  0  0  0  0  0
    1.4847    1.0684   -0.1227 C   0  0  0  0  0  0  0  0  0  0  0  0
    2.9197    0.6618   -0.1765 C   0  0  0  0  0  0  0  0  0  0  0  0
    3.9519    1.6383   -0.2178 N   0  0  0  0  0  0  0  0  0  0  0  0
    3.2239   -0.5569   -0.1855 O   0  0  0  0  0  0  0  0  0  0  0  0
    6.0337   -1.8397    0.8655 C   0  0  0  0  0  0  0  0  0  0  0  0
    4.4745   -2.0848    0.3483 C   0  0  2  0  0  0  0  0  0  0  0  0
    4.6492   -1.3987   -1.1433 C   0  0  0  0  0  0  0  0  0  0  0  0
    5.0334   -0.0607   -1.0333 N   0  0  0  0  0  0  0  0  0  0  0  0
    6.3120    0.3392   -0.9907 N   0  0  0  0  0  0  0  0  0  0  0  0
    6.3989    1.6609   -0.8846 C   0  0  0  0  0  0  0  0  0  0  0  0
    5.1339    2.1120   -0.8592 N   0  0  0  0  0  0  0  0  0  0  0  0
    4.3254    1.0762   -0.9486 N   0  0  0  0  0  0  0  0  0  0  0  0
    3.9397   -0.7582    1.0173 N   0  0  0  0  0  0  0  0  0  0  0  0
    2.5279   -0.5799    0.7891 C   0  0  0  0  0  0  0  0  0  0  0  0
    1.9690    0.5179    1.3152 N   0  0  0  0  0  0  0  0  0  0  0  0
    0.6671    0.7836    1.1655 C   0  0  0  0  0  0  0  0  0  0  0  0
   -0.1361   -0.0784    0.4575 C   0  0  0  0  0  0  0  0  0  0  0  0
   -1.5037    0.1848    0.2908 C   0  0  0  0  0  0  0  0  0  0  0  0
   -2.2736   -0.7058   -0.4265 C   0  0  0  0  0  0  0  0  0  0  0  0
   -3.6475   -0.5172   -0.6395 O   0  0  0  0  0  0  0  0  0  0  0  0
   -4.3072    0.5795   -0.1379 C   0  0  0  0  0  0  0  0  0  0  0  0
   -3.6109    1.5186    0.5909 C   0  0  0  0  0  0  0  0  0  0  0  0
   -4.2507    2.6139    1.0964 C   0  0  0  0  0  0  0  0  0  0  0  0
   -5.6055    2.7855    0.8777 C   0  0  0  0  0  0  0  0  0  0  0  0
   -6.1986    3.8785    1.3928 F   0  0  0  0  0  0  0  0  0  0  0  0
   -6.2753    1.8326    0.1468 C   0  0  0  0  0  0  0  0  0  0  0  0
   -5.6449    0.7280   -0.3664 C   0  0  0  0  0  0  0  0  0  0  0  0
   -6.3112   -0.2196   -1.0933 F   0  0  0  0  0  0  0  0  0  0  0  0
   -1.6262   -1.8111   -0.9360 C   0  0  0  0  0  0  0  0  0  0  0  0
   -2.3341   -2.6183   -1.5885 O   0  0  0  0  0  0  0  0  0  0  0  0
   -0.3189   -2.0526   -0.7705 N   0  0  0  0  0  0  0  0  0  0  0  0
    0.3267   -3.2381   -1.3286 C   0  0  0  0  0  0  0  0  0  0  0  0
    0.4708   -1.1991   -0.0708 C   0  0  0  0  0  0  0  0  0  0  0  0
    1.7821   -1.4489    0.0906 N   0  0  0  0  0  0  0  0  0  0  0  0
  1  2  1  0
  2  3  1  0
  3  4  2  0
  3  5  1  0
  5  6  1  0
  6  7  1  0
  7  8  1  0
  8  9  1  0
  8 10  2  0
 12 11  1  1
 12 13  1  0
 13 14  1  0
 14 15  1  0
 15 16  2  0
 16 17  1  0
 17 18  2  0
 12 19  1  0
 19 20  1  0
 20 21  2  0
 21 22  1  0
 22 23  2  0
 23 24  1  0
 24 25  2  0
 25 26  1  0
 26 27  1  0
 27 28  2  0
 28 29  1  0
 29 30  2  0
 30 31  1  0
 30 32  1  0
 32 33  2  0
 33 34  1  0
 25 35  1  0
 35 36  2  0
 35 37  1  0
 37 38  1  0
 37 39  1  0
 39 40  2  0
 18 14  1  0
 40 20  1  0
 39 23  1  0
 33 27  1  0
M  END

