
     RDKit          3D

 17 17  0  0  0  0  0  0  0  0999 V2000
    4.0294    0.1462    2.3333 O   0  0  0  0  0  1  0  0  0  0  0  0
    3.9490   -0.2793    1.0191 C   0  0  0  0  0  0  0  0  0  0  0  0
    4.9004   -0.9669    0.5180 O   0  0  0  0  0  0  0  0  0  0  0  0
    2.8034    0.0299    0.1676 C   0  0  0  0  0  0  0  0  0  0  0  0
    2.9381   -0.5396   -1.2278 C   0  0  0  0  0  0  0  0  0  0  0  0
    1.7961   -0.2232   -2.0535 N   0  0  0  0  0  0  0  0  0  0  0  0
    0.4572   -0.6496   -1.6981 C   0  0  0  0  0  0  0  0  0  0  0  0
    0.3932   -1.3035   -0.6298 O   0  0  0  0  0  0  0  0  0  0  0  0
   -0.6999   -0.3308   -2.5317 C   0  0  0  0  0  0  0  0  0  0  0  0
   -1.9694   -0.7629   -1.9615 C   0  0  0  0  0  0  0  0  0  0  0  0
   -2.2700   -0.1223   -0.6861 C   0  0  0  0  0  0  0  0  0  0  0  0
   -1.9318   -0.6975    0.5092 C   0  0  0  0  0  0  0  0  0  0  0  0
   -2.2344   -0.0571    1.7163 C   0  0  0  0  0  0  0  0  0  0  0  0
   -2.8726    1.1533    1.7151 C   0  0  0  0  0  0  0  0  0  0  0  0
   -3.1526    1.7520    2.9392 O   0  0  0  0  0  0  0  0  0  0  0  0
   -3.2249    1.7554    0.5199 C   0  0  0  0  0  0  0  0  0  0  0  0
   -2.9112    1.0958   -0.6493 C   0  0  0  0  0  0  0  0  0  0  0  0
  1  2  1  0
  2  3  2  0
  2  4  1  0
  4  5  1  0
  5  6  1  0
  6  7  1  0
  7  8  2  0
  7  9  1  0
  9 10  1  0
 10 11  1  0
 11 12  2  0
 12 13  1  0
 13 14  2  0
 14 15  1  0
 14 16  1  0
 16 17  2  0
 17 11  1  0
M  RAD  1   1   2
M  END

