
     RDKit          3D

 15 14  0  0  0  0  0  0  0  0999 V2000
    4.4378    0.0950    1.5377 C   0  0  0  0  0  0  0  0  0  0  0  0
    4.5472   -0.0210    0.0618 C   0  0  0  0  0  0  0  0  0  0  0  0
    4.5765   -1.4092   -0.4776 C   0  0  0  0  0  0  0  0  0  0  0  0
    3.8145    0.9854   -0.7394 C   0  0  0  0  0  0  0  0  0  0  0  0
    2.4027    1.0407   -0.5668 N   0  0  0  0  0  0  0  0  0  0  0  0
    1.5034   -0.0078   -0.8121 C   0  0  0  0  0  0  0  0  0  0  0  0
    1.9397   -1.1010   -1.2185 O   0  0  0  0  0  0  0  0  0  0  0  0
    0.0494    0.1384   -0.6046 C   0  0  0  0  0  0  0  0  0  0  0  0
   -0.6809   -1.1226   -0.9381 C   0  0  0  0  0  0  0  0  0  0  0  0
   -2.1584   -0.8789   -0.6962 C   0  0  0  0  0  0  0  0  0  0  0  0
   -2.4276   -0.5081    0.7468 C   0  0  0  0  0  0  0  0  0  0  0  0
   -3.8603   -0.2967    0.8744 N   0  0  0  0  0  0  0  0  0  0  0  0
   -4.4974    0.7051    0.0997 C   0  0  0  0  0  0  0  0  0  0  0  0
   -5.8812    0.9862    0.1524 N   0  0  0  0  0  0  0  0  0  0  0  0
   -3.7655    1.3944   -0.6957 N   0  0  0  0  0  4  0  0  0  0  0  0
  1  2  1  0
  2  3  1  0
  2  4  1  0
  4  5  1  0
  5  6  1  0
  6  7  2  0
  6  8  1  0
  8  9  1  0
  9 10  1  0
 10 11  1  0
 11 12  1  0
 12 13  1  0
 13 14  1  0
 13 15  2  0
M  CHG  1  15   1
M  END

