
     RDKit          3D

 14 13  0  0  0  0  0  0  0  0999 V2000
    4.1603   -0.1563   -1.7444 C   0  0  0  0  0  0  0  0  0  0  0  0
    3.8980    0.3438   -0.3572 C   0  0  0  0  0  0  0  0  0  0  0  0
    5.1813    0.9271    0.1801 C   0  0  0  0  0  0  0  0  0  0  0  0
    3.4328   -0.7162    0.5891 C   0  0  0  0  0  0  0  0  0  0  0  0
    2.1568   -1.3792    0.1746 C   0  0  0  0  0  0  0  0  0  0  0  0
    1.0626   -0.3785    0.0799 C   0  0  0  0  0  0  0  0  0  0  0  0
    1.2929    0.8229    0.3345 O   0  0  0  0  0  0  0  0  0  0  0  0
   -0.2520   -0.7622   -0.2975 N   0  0  0  0  0  0  0  0  0  0  0  0
   -1.3099    0.2272   -0.3854 C   0  0  0  0  0  0  0  0  0  0  0  0
   -2.5652   -0.5354   -0.8116 C   0  0  0  0  0  0  0  0  0  0  0  0
   -3.6785    0.4991   -0.9052 C   0  0  0  0  0  0  0  0  0  0  0  0
   -3.8141    1.1108    0.4747 C   0  0  0  0  0  0  0  0  0  0  0  0
   -4.1609    0.0718    1.5014 C   0  0  0  0  0  0  0  0  0  0  0  0
   -5.4042   -0.5563    1.1671 N   0  0  0  0  0  4  0  0  0  0  0  0
  1  2  1  0
  2  3  1  0
  2  4  1  0
  4  5  1  0
  5  6  1  0
  6  7  2  0
  6  8  1  0
  8  9  1  0
  9 10  1  0
 10 11  1  0
 11 12  1  0
 12 13  1  0
 13 14  1  0
M  CHG  1  14   1
M  END

