
     RDKit          3D

 15 15  0  0  0  0  0  0  0  0999 V2000
    4.8336   -0.3977    1.7877 N   0  0  0  0  0  0  0  0  0  0  0  0
    3.7700    0.3594    1.2027 C   0  0  0  0  0  0  0  0  0  0  0  0
    3.4470    1.5362    1.6542 N   0  0  0  0  0  4  0  0  0  0  0  0
    3.0072   -0.1181    0.1053 N   0  0  0  0  0  0  0  0  0  0  0  0
    1.9256    0.6299   -0.5042 C   0  0  0  0  0  0  0  0  0  0  0  0
    1.3870   -0.2475   -1.6381 C   0  0  0  0  0  0  0  0  0  0  0  0
    0.8819   -1.5704   -1.0886 C   0  0  0  0  0  0  0  0  0  0  0  0
   -0.2196   -1.2458   -0.1075 C   0  0  0  0  0  0  0  0  0  0  0  0
   -1.2860   -0.5101   -0.8827 C   0  0  0  0  0  0  0  0  0  0  0  0
   -1.1252   -0.2900   -2.1203 O   0  0  0  0  0  0  0  0  0  0  0  0
   -2.4646   -0.0612   -0.2496 N   0  0  0  0  0  0  0  0  0  0  0  0
   -3.5360    0.6447   -0.8922 C   0  0  0  0  0  0  0  0  0  0  0  0
   -3.9647    1.6348    0.1515 C   0  0  0  0  0  0  0  0  0  0  0  0
   -3.8412    0.8348    1.4459 C   0  0  0  0  0  0  0  0  0  0  0  0
   -2.8149   -0.2204    1.1359 C   0  0  0  0  0  0  0  0  0  0  0  0
  1  2  1  0
  2  3  2  0
  2  4  1  0
  4  5  1  0
  5  6  1  0
  6  7  1  0
  7  8  1  0
  8  9  1  0
  9 10  2  0
  9 11  1  0
 11 12  1  0
 12 13  1  0
 13 14  1  0
 14 15  1  0
 15 11  1  0
M  CHG  1   3   1
M  END

