
     RDKit          3D

 19 20  0  0  0  0  0  0  0  0999 V2000
    6.1300    1.0443    0.4762 C   0  0  0  0  0  0  0  0  0  0  0  0
    5.2494    0.8703   -0.7408 C   0  0  0  0  0  0  0  0  0  0  0  0
    4.2627   -0.3952   -0.3714 C   0  0  2  0  0  0  0  0  0  0  0  0
    3.4832   -0.3154   -1.8270 C   0  0  0  0  0  0  0  0  0  0  0  0
    3.1692    0.5593    0.3889 C   0  0  0  0  0  0  0  0  0  0  0  0
    2.0814   -0.3205    0.8719 C   0  0  0  0  0  0  0  0  0  0  0  0
    2.1852   -1.5556    0.6289 O   0  0  0  0  0  0  0  0  0  0  0  0
    0.9574    0.1199    1.5726 N   0  0  0  0  0  0  0  0  0  0  0  0
   -0.0287   -0.8603    1.9838 C   0  0  0  0  0  0  0  0  0  0  0  0
   -0.6192   -1.5922    0.8081 C   0  0  0  0  0  0  0  0  0  0  0  0
   -1.3044   -0.7105   -0.1508 C   0  0  0  0  0  0  0  0  0  0  0  0
   -0.9271   -0.2358   -1.3863 C   0  0  0  0  0  0  0  0  0  0  0  0
   -1.9120    0.5452   -1.8671 N   0  0  0  0  0  0  0  0  0  0  0  0
   -2.9220    0.5970   -0.9870 C   0  0  0  0  0  0  0  0  0  0  0  0
   -4.1350    1.2433   -1.0026 C   0  0  0  0  0  0  0  0  0  0  0  0
   -4.9996    1.1170    0.0607 C   0  0  0  0  0  0  0  0  0  0  0  0
   -4.6626    0.3533    1.1356 C   0  0  0  0  0  0  0  0  0  0  0  0
   -3.4515   -0.2824    1.1344 C   0  0  0  0  0  0  0  0  0  0  0  0
   -2.5565   -0.1816    0.0878 C   0  0  0  0  0  0  0  0  0  0  0  0
  1  2  1  0
  2  3  1  0
  3  4  1  6
  3  5  1  0
  5  6  1  0
  6  7  2  0
  6  8  1  0
  8  9  1  0
  9 10  1  0
 10 11  1  0
 11 12  2  0
 12 13  1  0
 13 14  1  0
 14 15  2  0
 15 16  1  0
 16 17  2  0
 17 18  1  0
 18 19  2  0
 19 11  1  0
 19 14  1  0
M  END

