
     RDKit          3D

 10  9  0  0  0  0  0  0  0  0999 V2000
   -2.3688    2.5159   -0.6834 C   0  0  0  0  0  0  0  0  0  0  0  0
   -3.0221    1.1662   -0.7711 C   0  0  0  0  0  0  0  0  0  0  0  0
   -2.1149    0.1375   -1.2120 N   0  0  0  0  0  0  0  0  0  0  0  0
   -0.9386   -0.1841   -0.4979 C   0  0  0  0  0  0  0  0  0  0  0  0
   -0.6529    0.4231    0.5477 O   0  0  0  0  0  0  0  0  0  0  0  0
   -0.0844   -1.2550   -1.0437 C   0  0  0  0  0  0  0  0  0  0  0  0
    1.1195   -1.4297   -0.1295 C   0  0  0  0  0  0  0  0  0  0  0  0
    1.9360   -0.1676   -0.0294 C   0  0  0  0  0  0  0  0  0  0  0  0
    3.3316   -0.4591    1.0616 S   0  0  0  0  0  0  0  0  0  0  0  0
    2.7948   -0.7474    2.7577 C   0  0  0  0  0  0  0  0  0  0  0  0
  1  2  1  0
  2  3  1  0
  3  4  1  0
  4  5  2  0
  4  6  1  0
  6  7  1  0
  7  8  1  0
  8  9  1  0
  9 10  1  0
M  END

