
     RDKit          3D

 15 14  0  0  0  0  0  0  0  0999 V2000
    4.3758    2.3710   -0.7397 O   0  0  0  0  0  1  0  0  0  0  0  0
    4.1248    1.0563   -0.3695 C   0  0  0  0  0  0  0  0  0  0  0  0
    4.7606    0.1013   -0.9057 O   0  0  0  0  0  0  0  0  0  0  0  0
    3.0860    0.8414    0.6729 C   0  0  0  0  0  0  0  0  0  0  0  0
    2.8909   -0.6103    1.0010 C   0  0  0  0  0  0  0  0  0  0  0  0
    2.4616   -1.3659   -0.2362 C   0  0  0  0  0  0  0  0  0  0  0  0
    1.2338   -0.8729   -0.7764 N   0  0  0  0  0  0  0  0  0  0  0  0
   -0.0027   -0.8380   -0.1035 C   0  0  0  0  0  0  0  0  0  0  0  0
   -0.0592   -1.2678    1.0640 O   0  0  0  0  0  0  0  0  0  0  0  0
   -1.1734   -0.2854   -0.8363 C   0  0  0  0  0  0  0  0  0  0  0  0
   -2.4306   -0.3097    0.0059 C   0  0  0  0  0  0  0  0  0  0  0  0
   -3.5510    0.2662   -0.8191 C   0  0  0  0  0  0  0  0  0  0  0  0
   -4.8357    0.2844   -0.0719 C   0  0  0  0  0  0  0  0  0  0  0  0
   -5.9922    0.7778   -0.6573 O   0  0  0  0  0  1  0  0  0  0  0  0
   -4.8889   -0.1482    1.1016 O   0  0  0  0  0  0  0  0  0  0  0  0
  1  2  1  0
  2  3  2  0
  2  4  1  0
  4  5  1  0
  5  6  1  0
  6  7  1  0
  7  8  1  0
  8  9  2  0
  8 10  1  0
 10 11  1  0
 11 12  1  0
 12 13  1  0
 13 14  1  0
 13 15  2  0
M  RAD  2   1   2  14   2
M  END

