
     RDKit          3D

 38 40  0  0  0  0  0  0  0  0999 V2000
    2.8058   -1.0231    0.1694 C   0  0  0  0  0  0  0  0  0  0  0  0
    1.7542   -0.6651   -0.7627 N   0  0  0  0  0  0  0  0  0  0  0  0
    0.4928   -0.1698   -0.3238 C   0  0  0  0  0  0  0  0  0  0  0  0
    0.3777   -0.0735    0.9220 O   0  0  0  0  0  0  0  0  0  0  0  0
   -0.6010    0.2079   -1.1698 C   0  0  0  0  0  0  0  0  0  0  0  0
   -1.8398    0.8098   -0.2580 C   0  0  1  0  0  0  0  0  0  0  0  0
   -2.0060   -0.5920    0.6247 C   0  0  0  0  0  0  0  0  0  0  0  0
   -0.9838    1.5057    0.7983 O   0  0  0  0  0  0  0  0  0  0  0  0
   -4.8650   -1.1228   -0.9260 C   0  0  0  0  0  0  0  0  0  0  0  0
   -4.7193   -2.1042    0.3684 C   0  0  2  0  0  0  0  0  0  0  0  0
   -6.0408   -1.5759    1.1482 C   0  0  0  0  0  0  0  0  0  0  0  0
   -5.8844   -0.1853    1.3938 N   0  0  0  0  0  0  0  0  0  0  0  0
   -6.2982    0.7322    0.5274 N   0  0  0  0  0  0  0  0  0  0  0  0
   -6.0281    1.9368    1.0080 C   0  0  0  0  0  0  0  0  0  0  0  0
   -5.4276    1.7203    2.2128 N   0  0  0  0  0  0  0  0  0  0  0  0
   -5.3467    0.4225    2.4348 N   0  0  0  0  0  0  0  0  0  0  0  0
   -3.7176   -1.1890    1.1181 N   0  0  0  0  0  0  0  0  0  0  0  0
   -2.5313   -0.9894    0.3673 C   0  0  0  0  0  0  0  0  0  0  0  0
   -2.3109   -1.5273   -0.8376 N   0  0  0  0  0  0  0  0  0  0  0  0
   -1.1971   -1.3486   -1.5585 C   0  0  0  0  0  0  0  0  0  0  0  0
   -0.2017   -0.5503   -1.0195 C   0  0  0  0  0  0  0  0  0  0  0  0
    0.9544   -0.3389   -1.7197 C   0  0  0  0  0  0  0  0  0  0  0  0
    1.9328    0.4496   -1.1827 C   0  0  0  0  0  0  0  0  0  0  0  0
    3.1013    0.6555   -1.9051 O   0  0  0  0  0  0  0  0  0  0  0  0
    4.3066    0.2683   -1.3659 C   0  0  0  0  0  0  0  0  0  0  0  0
    5.2589    1.2522   -1.1728 C   0  0  0  0  0  0  0  0  0  0  0  0
    6.4767    0.9685   -0.6474 C   0  0  0  0  0  0  0  0  0  0  0  0
    6.8222   -0.3015   -0.2836 C   0  0  0  0  0  0  0  0  0  0  0  0
    8.0406   -0.5213    0.2305 F   0  0  0  0  0  0  0  0  0  0  0  0
    5.8790   -1.3017   -0.4702 C   0  0  0  0  0  0  0  0  0  0  0  0
    4.6434   -1.0002   -1.0058 C   0  0  0  0  0  0  0  0  0  0  0  0
    3.7255   -1.9729   -1.1876 F   0  0  0  0  0  0  0  0  0  0  0  0
    1.7304    1.0248    0.0742 C   0  0  0  0  0  0  0  0  0  0  0  0
    2.6463    1.7468    0.5470 O   0  0  0  0  0  0  0  0  0  0  0  0
    0.5875    0.8029    0.7426 N   0  0  0  0  0  0  0  0  0  0  0  0
    0.3868    1.4059    2.0495 C   0  0  0  0  0  0  0  0  0  0  0  0
   -0.3917    0.0194    0.2157 C   0  0  0  0  0  0  0  0  0  0  0  0
   -1.5320   -0.2227    0.8442 N   0  0  0  0  0  0  0  0  0  0  0  0
  1  2  1  0
  2  3  1  0
  3  4  2  0
  3  5  1  0
  5  6  1  0
  6  7  1  1
  6  8  1  0
 10  9  1  6
 10 11  1  0
 11 12  1  0
 12 13  1  0
 13 14  2  0
 14 15  1  0
 15 16  2  0
 10 17  1  0
 17 18  1  0
 18 19  2  0
 19 20  1  0
 20 21  2  0
 21 22  1  0
 22 23  2  0
 23 24  1  0
 24 25  1  0
 25 26  2  0
 26 27  1  0
 27 28  2  0
 28 29  1  0
 28 30  1  0
 30 31  2  0
 31 32  1  0
 23 33  1  0
 33 34  2  0
 33 35  1  0
 35 36  1  0
 35 37  1  0
 37 38  2  0
 16 12  1  0
 38 18  1  0
 37 21  1  0
 31 25  1  0
M  END

