
     RDKit          3D

 40 42  0  0  0  0  0  0  0  0999 V2000
   -3.8198    0.0801   -0.7634 C   0  0  0  0  0  0  0  0  0  0  0  0
   -2.4797    0.2665   -0.0261 C   0  0  0  0  0  0  0  0  0  0  0  0
   -1.8994    1.5971   -0.3054 C   0  0  0  0  0  0  0  0  0  0  0  0
   -1.6669   -0.9330   -0.3395 C   0  0  0  0  0  0  0  0  0  0  0  0
   -0.4027   -0.9910    0.2288 N   0  0  0  0  0  0  0  0  0  0  0  0
    0.6695   -0.1234    0.0192 C   0  0  0  0  0  0  0  0  0  0  0  0
    0.5855    0.8483   -0.7600 O   0  0  0  0  0  0  0  0  0  0  0  0
    1.9795   -0.3245    0.7281 C   0  0  0  0  0  0  0  0  0  0  0  0
    2.9064    0.7756    0.2789 C   0  0  0  0  0  0  0  0  0  0  0  0
    4.1277    0.5887    0.9395 O   0  0  0  0  0  0  0  0  0  0  0  0
    5.0501    1.2975    0.2757 C   0  0  0  0  0  0  0  0  0  0  0  0
    5.1308    0.4180    1.6711 C   0  0  2  0  0  0  0  0  0  0  0  0
    6.4437   -0.4357    1.1647 C   0  0  0  0  0  0  0  0  0  0  0  0
    6.1126   -1.1330   -0.0185 N   0  0  0  0  0  0  0  0  0  0  0  0
    6.1845   -0.8355   -1.2977 N   0  0  0  0  0  0  0  0  0  0  0  0
    5.7363   -1.8608   -2.0439 C   0  0  0  0  0  0  0  0  0  0  0  0
    5.3777   -2.8203   -1.1787 N   0  0  0  0  0  0  0  0  0  0  0  0
    5.6085   -2.3694    0.0168 N   0  0  0  0  0  0  0  0  0  0  0  0
    4.0613   -0.6456    1.2142 N   0  0  0  0  0  0  0  0  0  0  0  0
    2.7743   -0.0941    0.9230 C   0  0  0  0  0  0  0  0  0  0  0  0
    2.5214    1.2225    1.0364 N   0  0  0  0  0  0  0  0  0  0  0  0
    1.3352    1.7985    0.7776 C   0  0  0  0  0  0  0  0  0  0  0  0
    0.3089    0.9605    0.3649 C   0  0  0  0  0  0  0  0  0  0  0  0
   -0.9444    1.4033    0.0684 C   0  0  0  0  0  0  0  0  0  0  0  0
   -1.9984    0.5362   -0.3562 C   0  0  0  0  0  0  0  0  0  0  0  0
   -3.1796    1.0716   -0.6209 O   0  0  0  0  0  0  0  0  0  0  0  0
   -4.4615    1.1110   -0.2684 C   0  0  0  0  0  0  0  0  0  0  0  0
   -4.8883    2.3892    0.2039 C   0  0  0  0  0  0  0  0  0  0  0  0
   -6.1645    2.6079    0.6047 C   0  0  0  0  0  0  0  0  0  0  0  0
   -7.1240    1.6192    0.5822 C   0  0  0  0  0  0  0  0  0  0  0  0
   -8.3591    1.9203    0.9965 F   0  0  0  0  0  0  0  0  0  0  0  0
   -6.7396    0.3904    0.1344 C   0  0  0  0  0  0  0  0  0  0  0  0
   -5.4295    0.1469   -0.2828 C   0  0  0  0  0  0  0  0  0  0  0  0
   -5.1574   -1.1010   -0.7321 F   0  0  0  0  0  0  0  0  0  0  0  0
   -1.6556   -0.7801   -0.4448 C   0  0  0  0  0  0  0  0  0  0  0  0
   -2.4290   -1.6879   -0.7981 O   0  0  0  0  0  0  0  0  0  0  0  0
   -0.3893   -1.2326   -0.1454 N   0  0  0  0  0  0  0  0  0  0  0  0
   -0.0729   -2.6477   -0.2548 C   0  0  0  0  0  0  0  0  0  0  0  0
    0.5654   -0.3760    0.2497 C   0  0  0  0  0  0  0  0  0  0  0  0
    1.7822   -0.8734    0.5284 N   0  0  0  0  0  0  0  0  0  0  0  0
  1  2  1  0
  2  3  1  0
  2  4  1  0
  4  5  1  0
  5  6  1  0
  6  7  2  0
  6  8  1  0
  8  9  1  0
  9 10  1  0
 12 11  1  6
 12 13  1  0
 13 14  1  0
 14 15  1  0
 15 16  2  0
 16 17  1  0
 17 18  2  0
 12 19  1  0
 19 20  1  0
 20 21  2  0
 21 22  1  0
 22 23  2  0
 23 24  1  0
 24 25  2  0
 25 26  1  0
 26 27  1  0
 27 28  2  0
 28 29  1  0
 29 30  2  0
 30 31  1  0
 30 32  1  0
 32 33  2  0
 33 34  1  0
 25 35  1  0
 35 36  2  0
 35 37  1  0
 37 38  1  0
 37 39  1  0
 39 40  2  0
 18 14  1  0
 40 20  1  0
 39 23  1  0
 33 27  1  0
M  END

