
     RDKit          3D

 44 46  0  0  0  0  0  0  0  0999 V2000
    4.7144    0.3794   -1.1385 C   0  0  0  0  0  0  0  0  0  0  0  0
    3.9700    0.2658    0.1772 C   0  0  0  0  0  0  0  0  0  0  0  0
    3.6025    1.6601    0.6240 C   0  0  0  0  0  0  0  0  0  0  0  0
    2.6891   -0.4858   -0.0762 C   0  0  0  0  0  0  0  0  0  0  0  0
    1.8961    0.3276   -1.1004 C   0  0  0  0  0  0  0  0  0  0  0  0
    0.6537   -0.4087   -1.3411 N   0  0  0  0  0  0  0  0  0  0  0  0
   -0.2604   -0.6777   -0.2926 C   0  0  0  0  0  0  0  0  0  0  0  0
    0.0314   -0.2633    0.8487 O   0  0  0  0  0  0  0  0  0  0  0  0
   -1.5303   -1.4266   -0.5214 C   0  0  0  0  0  0  0  0  0  0  0  0
   -2.2753   -1.5441    0.7914 C   0  0  0  0  0  0  0  0  0  0  0  0
   -2.5586   -0.1384    1.2718 C   0  0  0  0  0  0  0  0  0  0  0  0
   -3.3875    0.5178    0.2215 C   0  0  0  0  0  0  0  0  0  0  0  0
   -3.8005    1.8407    0.4055 O   0  0  0  0  0  1  0  0  0  0  0  0
   -3.7447   -0.0467   -0.8327 O   0  0  0  0  0  0  0  0  0  0  0  0
   -5.9060   -1.4351   -0.6369 C   0  0  0  0  0  0  0  0  0  0  0  0
   -4.7319   -0.9223    0.4376 C   0  0  2  0  0  0  0  0  0  0  0  0
   -4.7409    0.6270   -0.2168 C   0  0  0  0  0  0  0  0  0  0  0  0
   -6.1290    1.0089    0.0150 N   0  0  0  0  0  0  0  0  0  0  0  0
   -7.1534    0.8192   -0.7976 N   0  0  0  0  0  0  0  0  0  0  0  0
   -8.2555    1.3169   -0.2078 C   0  0  0  0  0  0  0  0  0  0  0  0
   -7.8774    1.8075    0.9694 N   0  0  0  0  0  0  0  0  0  0  0  0
   -6.5789    1.6244    1.1159 N   0  0  0  0  0  0  0  0  0  0  0  0
   -3.5533   -1.3845   -0.5167 N   0  0  0  0  0  0  0  0  0  0  0  0
   -2.2854   -1.1098    0.0629 C   0  0  0  0  0  0  0  0  0  0  0  0
   -2.1201   -0.5309    1.2684 N   0  0  0  0  0  0  0  0  0  0  0  0
   -0.9171   -0.2876    1.7821 C   0  0  0  0  0  0  0  0  0  0  0  0
    0.2043   -0.6393    1.0576 C   0  0  0  0  0  0  0  0  0  0  0  0
    1.4501   -0.4034    1.5562 C   0  0  0  0  0  0  0  0  0  0  0  0
    2.5413   -0.7781    0.7838 C   0  0  0  0  0  0  0  0  0  0  0  0
    3.8213   -0.5511    1.2642 O   0  0  0  0  0  0  0  0  0  0  0  0
    4.7645    0.2285    0.6486 C   0  0  0  0  0  0  0  0  0  0  0  0
    5.9589   -0.3632    0.2717 C   0  0  0  0  0  0  0  0  0  0  0  0
    6.9255    0.3867   -0.3467 C   0  0  0  0  0  0  0  0  0  0  0  0
    6.7424    1.7241   -0.6069 C   0  0  0  0  0  0  0  0  0  0  0  0
    7.7042    2.4753   -1.2235 F   0  0  0  0  0  0  0  0  0  0  0  0
    5.5450    2.2929   -0.2229 C   0  0  0  0  0  0  0  0  0  0  0  0
    4.5498    1.5630    0.4031 C   0  0  0  0  0  0  0  0  0  0  0  0
    3.3680    2.1158    0.7843 F   0  0  0  0  0  0  0  0  0  0  0  0
    2.3567   -1.3627   -0.4339 C   0  0  0  0  0  0  0  0  0  0  0  0
    3.3389   -1.7096   -1.1493 O   0  0  0  0  0  0  0  0  0  0  0  0
    1.1190   -1.5956   -0.9263 N   0  0  0  0  0  0  0  0  0  0  0  0
    0.9799   -2.2220   -2.2305 C   0  0  0  0  0  0  0  0  0  0  0  0
    0.0628   -1.2396   -0.1922 C   0  0  0  0  0  0  0  0  0  0  0  0
   -1.1837   -1.4555   -0.6493 N   0  0  0  0  0  0  0  0  0  0  0  0
  1  2  1  0
  2  3  1  0
  2  4  1  0
  4  5  1  0
  5  6  1  0
  6  7  1  0
  7  8  2  0
  7  9  1  0
  9 10  1  0
 10 11  1  0
 11 12  1  0
 12 13  1  0
 12 14  2  0
 16 15  1  6
 16 17  1  0
 17 18  1  0
 18 19  1  0
 19 20  2  0
 20 21  1  0
 21 22  2  0
 16 23  1  0
 23 24  1  0
 24 25  2  0
 25 26  1  0
 26 27  2  0
 27 28  1  0
 28 29  2  0
 29 30  1  0
 30 31  1  0
 31 32  2  0
 32 33  1  0
 33 34  2  0
 34 35  1  0
 34 36  1  0
 36 37  2  0
 37 38  1  0
 29 39  1  0
 39 40  2  0
 39 41  1  0
 41 42  1  0
 41 43  1  0
 43 44  2  0
 22 18  1  0
 44 24  1  0
 43 27  1  0
 37 31  1  0
M  RAD  1  13   2
M  END

