
     RDKit          3D

 44 46  0  0  0  0  0  0  0  0999 V2000
    5.3842   -0.2431    1.0242 C   0  0  0  0  0  0  0  0  0  0  0  0
    4.5253   -1.0517    0.0620 C   0  0  0  0  0  0  0  0  0  0  0  0
    3.1857   -0.0627   -0.1362 C   0  0  2  0  0  0  0  0  0  0  0  0
    2.8919   -0.1597    1.5003 C   0  0  0  0  0  0  0  0  0  0  0  0
    2.2235   -1.3094   -0.4987 C   0  0  0  0  0  0  0  0  0  0  0  0
    0.9620   -0.7848   -0.7887 N   0  0  0  0  0  0  0  0  0  0  0  0
    0.1141   -0.0663    0.0329 C   0  0  0  0  0  0  0  0  0  0  0  0
    0.3583    0.2310    1.2129 O   0  0  0  0  0  0  0  0  0  0  0  0
   -1.2059    0.3831   -0.5681 C   0  0  0  0  0  0  0  0  0  0  0  0
   -1.9952    1.1525    0.4792 C   0  0  0  0  0  0  0  0  0  0  0  0
   -3.3078    1.6001   -0.1164 C   0  0  0  0  0  0  0  0  0  0  0  0
   -4.0897    0.4252   -0.5530 C   0  0  0  0  0  0  0  0  0  0  0  0
   -5.3626    0.6412   -1.1431 N   0  0  0  0  0  0  0  0  0  0  0  0
   -3.6840   -0.7555   -0.4281 O   0  0  0  0  0  0  0  0  0  0  0  0
    3.9167   -0.3744    1.7395 C   0  0  0  0  0  0  0  0  0  0  0  0
    4.4189   -1.8768    1.2463 C   0  0  2  0  0  0  0  0  0  0  0  0
    6.0024   -1.4559    1.0605 C   0  0  0  0  0  0  0  0  0  0  0  0
    6.1023   -0.4211    0.1106 N   0  0  0  0  0  0  0  0  0  0  0  0
    6.2590   -0.4311   -1.2094 N   0  0  0  0  0  0  0  0  0  0  0  0
    6.3003    0.8170   -1.6867 C   0  0  0  0  0  0  0  0  0  0  0  0
    6.1670    1.6256   -0.6464 N   0  0  0  0  0  0  0  0  0  0  0  0
    6.0490    0.8740    0.4257 N   0  0  0  0  0  0  0  0  0  0  0  0
    4.0474   -1.6217   -0.2657 N   0  0  0  0  0  0  0  0  0  0  0  0
    2.6358   -1.3406   -0.4052 C   0  0  0  0  0  0  0  0  0  0  0  0
    2.1853   -1.1036   -1.6488 N   0  0  0  0  0  0  0  0  0  0  0  0
    0.9191   -0.8332   -1.9219 C   0  0  0  0  0  0  0  0  0  0  0  0
    0.0064   -0.7925   -0.8626 C   0  0  0  0  0  0  0  0  0  0  0  0
   -1.2975   -0.5195   -1.0932 C   0  0  0  0  0  0  0  0  0  0  0  0
   -2.2650   -0.4658   -0.0505 C   0  0  0  0  0  0  0  0  0  0  0  0
   -3.5198   -0.1885   -0.4011 O   0  0  0  0  0  0  0  0  0  0  0  0
   -4.4944    0.6982   -0.2671 C   0  0  0  0  0  0  0  0  0  0  0  0
   -4.8589    1.3605   -1.4731 C   0  0  0  0  0  0  0  0  0  0  0  0
   -5.8386    2.2821   -1.4629 C   0  0  0  0  0  0  0  0  0  0  0  0
   -6.5329    2.6393   -0.3349 C   0  0  0  0  0  0  0  0  0  0  0  0
   -7.4996    3.5749   -0.4202 F   0  0  0  0  0  0  0  0  0  0  0  0
   -6.2151    2.0265    0.8464 C   0  0  0  0  0  0  0  0  0  0  0  0
   -5.1945    1.0634    0.8440 C   0  0  0  0  0  0  0  0  0  0  0  0
   -4.9397    0.4610    2.0251 F   0  0  0  0  0  0  0  0  0  0  0  0
   -1.7463   -0.7165    1.1893 C   0  0  0  0  0  0  0  0  0  0  0  0
   -2.4792   -0.7082    2.2071 O   0  0  0  0  0  0  0  0  0  0  0  0
   -0.4189   -0.9898    1.3907 N   0  0  0  0  0  0  0  0  0  0  0  0
    0.0389   -1.2423    2.7450 C   0  0  0  0  0  0  0  0  0  0  0  0
    0.4779   -1.0384    0.4217 C   0  0  0  0  0  0  0  0  0  0  0  0
    1.7739   -1.3024    0.5970 N   0  0  0  0  0  0  0  0  0  0  0  0
  1  2  1  0
  2  3  1  0
  3  4  1  1
  3  5  1  0
  5  6  1  0
  6  7  1  0
  7  8  2  0
  7  9  1  0
  9 10  1  0
 10 11  1  0
 11 12  1  0
 12 13  1  0
 12 14  2  0
 16 15  1  1
 16 17  1  0
 17 18  1  0
 18 19  1  0
 19 20  2  0
 20 21  1  0
 21 22  2  0
 16 23  1  0
 23 24  1  0
 24 25  2  0
 25 26  1  0
 26 27  2  0
 27 28  1  0
 28 29  2  0
 29 30  1  0
 30 31  1  0
 31 32  2  0
 32 33  1  0
 33 34  2  0
 34 35  1  0
 34 36  1  0
 36 37  2  0
 37 38  1  0
 29 39  1  0
 39 40  2  0
 39 41  1  0
 41 42  1  0
 41 43  1  0
 43 44  2  0
 22 18  1  0
 44 24  1  0
 43 27  1  0
 37 31  1  0
M  END

