
     RDKit          3D

 13 12  0  0  0  0  0  0  0  0999 V2000
   -3.6279    0.8379   -0.9338 C   0  0  0  0  0  0  0  0  0  0  0  0
   -3.8268   -0.4615    0.1275 C   0  0  1  0  0  0  0  0  0  0  0  0
   -4.8241   -1.1513   -0.8337 O   0  0  0  0  0  0  0  0  0  0  0  0
   -2.5262   -1.2775   -0.5287 C   0  0  0  0  0  0  0  0  0  0  0  0
   -1.3898   -0.3589   -0.3116 C   0  0  0  0  0  0  0  0  0  0  0  0
   -1.4368    0.7532    0.2365 O   0  0  0  0  0  0  0  0  0  0  0  0
   -0.1107   -0.7733   -0.7687 N   0  0  0  0  0  0  0  0  0  0  0  0
    1.0766    0.0251   -0.6200 C   0  0  0  0  0  0  0  0  0  0  0  0
    1.4245    0.3433    0.7983 C   0  0  0  0  0  0  0  0  0  0  0  0
    2.6862    1.1817    0.7907 C   0  0  0  0  0  0  0  0  0  0  0  0
    3.8188    0.4463    0.1544 C   0  0  0  0  0  0  0  0  0  0  0  0
    5.0632    1.1389    0.0901 N   0  0  0  0  0  0  0  0  0  0  0  0
    3.6729   -0.7039   -0.2903 O   0  0  0  0  0  0  0  0  0  0  0  0
  2  1  1  6
  2  3  1  0
  2  4  1  0
  4  5  1  0
  5  6  2  0
  5  7  1  0
  7  8  1  0
  8  9  1  0
  9 10  1  0
 10 11  1  0
 11 12  1  0
 11 13  2  0
M  END

