
     RDKit          3D

 39 41  0  0  0  0  0  0  0  0999 V2000
    3.8326    0.0982   -0.2902 C   0  0  0  0  0  0  0  0  0  0  0  0
    2.5063    0.7302   -0.5920 C   0  0  0  0  0  0  0  0  0  0  0  0
    1.4002   -0.0370    0.0424 C   0  0  0  0  0  0  0  0  0  0  0  0
    1.5995   -1.0615    0.7244 O   0  0  0  0  0  0  0  0  0  0  0  0
    0.0609    0.4479   -0.1576 N   0  0  0  0  0  0  0  0  0  0  0  0
   -1.0049   -0.3142    0.4693 C   0  0  0  0  0  0  0  0  0  0  0  0
   -2.3492    0.2810    0.1942 C   0  0  0  0  0  0  0  0  0  0  0  0
   -3.3924   -0.5690    0.8789 C   0  0  0  0  0  0  0  0  0  0  0  0
   -2.6530    0.4244   -1.2694 C   0  0  0  0  0  0  0  0  0  0  0  0
   -4.7284    2.1494   -2.1687 C   0  0  0  0  0  0  0  0  0  0  0  0
   -5.2612    0.8736   -1.2512 C   0  0  2  0  0  0  0  0  0  0  0  0
   -4.5711    1.4507    0.1374 C   0  0  0  0  0  0  0  0  0  0  0  0
   -4.9372    0.4312    1.1103 N   0  0  0  0  0  0  0  0  0  0  0  0
   -6.0278    0.4234    1.8507 N   0  0  0  0  0  0  0  0  0  0  0  0
   -6.0203   -0.6747    2.6276 C   0  0  0  0  0  0  0  0  0  0  0  0
   -4.9026   -1.3309    2.3417 N   0  0  0  0  0  0  0  0  0  0  0  0
   -4.2596   -0.6408    1.4170 N   0  0  0  0  0  0  0  0  0  0  0  0
   -4.0561   -0.0608   -1.6388 N   0  0  0  0  0  0  0  0  0  0  0  0
   -2.7537    0.3702   -1.3702 C   0  0  0  0  0  0  0  0  0  0  0  0
   -2.4425    1.5421   -0.7961 N   0  0  0  0  0  0  0  0  0  0  0  0
   -1.1767    1.9113   -0.5587 C   0  0  0  0  0  0  0  0  0  0  0  0
   -0.1367    1.0931   -0.8989 C   0  0  0  0  0  0  0  0  0  0  0  0
    1.1787    1.4831   -0.6493 C   0  0  0  0  0  0  0  0  0  0  0  0
    2.1944    0.6227   -1.0107 C   0  0  0  0  0  0  0  0  0  0  0  0
    3.5405    0.9476   -0.7906 O   0  0  0  0  0  0  0  0  0  0  0  0
    4.3764    0.1832   -0.0010 C   0  0  0  0  0  0  0  0  0  0  0  0
    5.4985   -0.3537   -0.5983 C   0  0  0  0  0  0  0  0  0  0  0  0
    6.3564   -1.1181    0.1438 C   0  0  0  0  0  0  0  0  0  0  0  0
    6.0535   -1.3221    1.4869 C   0  0  0  0  0  0  0  0  0  0  0  0
    6.9138   -2.0836    2.2143 F   0  0  0  0  0  0  0  0  0  0  0  0
    4.9504   -0.8006    2.0956 C   0  0  0  0  0  0  0  0  0  0  0  0
    4.0804   -0.0241    1.3386 C   0  0  0  0  0  0  0  0  0  0  0  0
    2.9720    0.5200    1.8818 F   0  0  0  0  0  0  0  0  0  0  0  0
    1.8289   -0.5661   -1.5955 C   0  0  0  0  0  0  0  0  0  0  0  0
    2.7531   -1.3539   -1.9267 O   0  0  0  0  0  0  0  0  0  0  0  0
    0.5617   -0.9224   -1.8267 N   0  0  0  0  0  0  0  0  0  0  0  0
    0.2122   -2.2011   -2.4537 C   0  0  0  0  0  0  0  0  0  0  0  0
   -0.4559   -0.1118   -1.4891 C   0  0  0  0  0  0  0  0  0  0  0  0
   -1.7411   -0.4368   -1.7063 N   0  0  0  0  0  0  0  0  0  0  0  0
  1  2  1  0
  2  3  1  0
  3  4  2  0
  3  5  1  0
  5  6  1  0
  6  7  1  0
  7  8  1  0
  7  9  1  0
 11 10  1  6
 11 12  1  0
 12 13  1  0
 13 14  1  0
 14 15  2  0
 15 16  1  0
 16 17  2  0
 11 18  1  0
 18 19  1  0
 19 20  2  0
 20 21  1  0
 21 22  2  0
 22 23  1  0
 23 24  2  0
 24 25  1  0
 25 26  1  0
 26 27  2  0
 27 28  1  0
 28 29  2  0
 29 30  1  0
 29 31  1  0
 31 32  2  0
 32 33  1  0
 24 34  1  0
 34 35  2  0
 34 36  1  0
 36 37  1  0
 36 38  1  0
 38 39  2  0
 17 13  1  0
 39 19  1  0
 38 22  1  0
 32 26  1  0
M  END

