
     RDKit          3D

 19 20  0  0  0  0  0  0  0  0999 V2000
    5.7931    2.0902   -0.6365 C   0  0  0  0  0  0  0  0  0  0  0  0
    5.2093    0.9012    0.0952 C   0  0  0  0  0  0  0  0  0  0  0  0
    5.2188   -0.3227   -0.9912 C   0  0  2  0  0  0  0  0  0  0  0  0
    4.2582    0.4340   -2.0665 C   0  0  0  0  0  0  0  0  0  0  0  0
    4.0404   -1.1729   -0.2742 C   0  0  0  0  0  0  0  0  0  0  0  0
    2.8278   -0.4111   -0.1846 C   0  0  0  0  0  0  0  0  0  0  0  0
    2.7513    0.7800   -0.5416 O   0  0  0  0  0  0  0  0  0  0  0  0
    1.6534   -1.0026    0.3233 N   0  0  0  0  0  0  0  0  0  0  0  0
    0.3924   -0.3129    0.4483 C   0  0  0  0  0  0  0  0  0  0  0  0
   -0.5864   -1.3322    1.0390 C   0  0  0  0  0  0  0  0  0  0  0  0
   -1.9005   -0.6942    1.1949 C   0  0  0  0  0  0  0  0  0  0  0  0
   -2.4241   -0.2680    2.4001 C   0  0  0  0  0  0  0  0  0  0  0  0
   -3.6337    0.2599    2.1588 N   0  0  0  0  0  0  0  0  0  0  0  0
   -3.9322    0.2042    0.8650 C   0  0  0  0  0  0  0  0  0  0  0  0
   -5.0235    0.6032    0.1273 C   0  0  0  0  0  0  0  0  0  0  0  0
   -5.0075    0.3916   -1.2319 C   0  0  0  0  0  0  0  0  0  0  0  0
   -3.9353   -0.2029   -1.8544 C   0  0  0  0  0  0  0  0  0  0  0  0
   -2.8465   -0.6010   -1.1190 C   0  0  0  0  0  0  0  0  0  0  0  0
   -2.8550   -0.3917    0.2481 C   0  0  0  0  0  0  0  0  0  0  0  0
  1  2  1  0
  2  3  1  0
  3  4  1  6
  3  5  1  0
  5  6  1  0
  6  7  2  0
  6  8  1  0
  8  9  1  0
  9 10  1  0
 10 11  1  0
 11 12  2  0
 12 13  1  0
 13 14  1  0
 14 15  2  0
 15 16  1  0
 16 17  2  0
 17 18  1  0
 18 19  2  0
 19 11  1  0
 19 14  1  0
M  END

