
     RDKit          3D

 13 12  0  0  0  0  0  0  0  0999 V2000
   -4.2618    0.2143   -1.5022 C   0  0  0  0  0  0  0  0  0  0  0  0
   -2.8937    0.4727   -0.9072 C   0  0  0  0  0  0  0  0  0  0  0  0
   -2.6443   -0.9776   -0.1290 C   0  0  2  0  0  0  0  0  0  0  0  0
   -3.9926   -0.7640    0.8189 C   0  0  0  0  0  0  0  0  0  0  0  0
   -1.6488   -0.3010    0.9850 C   0  0  0  0  0  0  0  0  0  0  0  0
   -0.5629    0.2449    0.1680 C   0  0  0  0  0  0  0  0  0  0  0  0
   -0.5262    0.1413   -1.0795 O   0  0  0  0  0  0  0  0  0  0  0  0
    0.5168    0.9335    0.8109 N   0  0  0  0  0  0  0  0  0  0  0  0
    1.5735    1.4641    0.0050 C   0  0  0  0  0  0  0  0  0  0  0  0
    2.2152    0.3201   -0.7408 C   0  0  0  0  0  0  0  0  0  0  0  0
    2.7863   -0.7114    0.2145 C   0  0  0  0  0  0  0  0  0  0  0  0
    4.0413    0.1535    1.2347 S   0  0  0  0  0  0  0  0  0  0  0  0
    5.3973    0.6355    0.1216 C   0  0  0  0  0  0  0  0  0  0  0  0
  1  2  1  0
  2  3  1  0
  3  4  1  1
  3  5  1  0
  5  6  1  0
  6  7  2  0
  6  8  1  0
  8  9  1  0
  9 10  1  0
 10 11  1  0
 11 12  1  0
 12 13  1  0
M  END

