
     RDKit          3D

 44 46  0  0  0  0  0  0  0  0999 V2000
    5.9768    2.1256    1.1541 C   0  0  0  0  0  0  0  0  0  0  0  0
    4.4728    1.4519    1.3442 C   0  0  2  0  0  0  0  0  0  0  0  0
    4.9167   -0.0205    0.7464 C   0  0  0  0  0  0  0  0  0  0  0  0
    5.3794    0.1504   -0.5799 N   0  0  0  0  0  0  0  0  0  0  0  0
    6.6709    0.4005   -0.8577 N   0  0  0  0  0  0  0  0  0  0  0  0
    6.8333    0.5177   -2.1884 C   0  0  0  0  0  0  0  0  0  0  0  0
    5.6273    0.3376   -2.7319 N   0  0  0  0  0  0  0  0  0  0  0  0
    4.7848    0.1214   -1.7486 N   0  0  0  0  0  0  0  0  0  0  0  0
    3.9247    1.9915   -0.0173 N   0  0  0  0  0  0  0  0  0  0  0  0
    2.5818    1.6206   -0.2381 C   0  0  0  0  0  0  0  0  0  0  0  0
    1.9349    2.0115   -1.3878 N   0  0  0  0  0  0  0  0  0  0  0  0
    0.6555    1.6467   -1.5722 C   0  0  0  0  0  0  0  0  0  0  0  0
   -0.0097    0.8898   -0.6268 C   0  0  0  0  0  0  0  0  0  0  0  0
   -1.2930    0.5206   -0.8052 C   0  0  0  0  0  0  0  0  0  0  0  0
   -1.9525   -0.2596    0.1869 C   0  0  0  0  0  0  0  0  0  0  0  0
   -3.1709   -0.5882   -0.0217 O   0  0  0  0  0  0  0  0  0  0  0  0
   -4.4051   -0.9211   -0.2329 C   0  0  0  0  0  0  0  0  0  0  0  0
   -5.0685   -0.4919   -1.4163 C   0  0  0  0  0  0  0  0  0  0  0  0
   -6.3613   -0.8104   -1.6910 C   0  0  0  0  0  0  0  0  0  0  0  0
   -7.1064   -1.5743   -0.8288 C   0  0  0  0  0  0  0  0  0  0  0  0
   -8.3774   -1.8621   -1.1406 F   0  0  0  0  0  0  0  0  0  0  0  0
   -6.5043   -2.0103    0.3265 C   0  0  0  0  0  0  0  0  0  0  0  0
   -5.2009   -1.6980    0.6190 C   0  0  0  0  0  0  0  0  0  0  0  0
   -4.6228   -2.1352    1.7588 F   0  0  0  0  0  0  0  0  0  0  0  0
   -1.2433   -0.6316    1.3424 C   0  0  0  0  0  0  0  0  0  0  0  0
   -1.8112   -1.3195    2.2266 O   0  0  0  0  0  0  0  0  0  0  0  0
    0.0243   -0.2374    1.4647 N   0  0  0  0  0  0  0  0  0  0  0  0
    0.7837   -0.6170    2.6636 C   0  0  0  0  0  0  0  0  0  0  0  0
    0.6419    0.4958    0.5311 C   0  0  0  0  0  0  0  0  0  0  0  0
    1.9185    0.8956    0.6497 N   0  0  0  0  0  0  0  0  0  0  0  0
   -4.8901    1.1749    1.4495 N   0  0  0  0  0  0  0  0  0  0  0  0
   -4.2296    0.0686    0.8314 C   0  0  0  0  0  0  0  0  0  0  0  0
   -4.8603   -0.8474    0.2188 O   0  0  0  0  0  0  0  0  0  0  0  0
   -2.7511    0.0259    0.9301 C   0  0  0  0  0  0  0  0  0  0  0  0
   -2.2594   -1.2183    0.2684 C   0  0  0  0  0  0  0  0  0  0  0  0
   -0.8143   -1.3178    0.3285 N   0  0  0  0  0  0  0  0  0  0  0  0
    0.0584   -0.3761   -0.2303 C   0  0  0  0  0  0  0  0  0  0  0  0
   -0.3912    0.6292   -0.8282 O   0  0  0  0  0  0  0  0  0  0  0  0
    1.5205   -0.5654   -0.1171 C   0  0  0  0  0  0  0  0  0  0  0  0
    2.2184    0.5878   -0.7624 C   0  0  0  0  0  0  0  0  0  0  0  0
    3.7272    0.4871   -0.7074 C   0  0  0  0  0  0  0  0  0  0  0  0
    4.1107    0.4325    0.7450 C   0  0  0  0  0  0  0  0  0  0  0  0
    4.6343    1.5738    1.3320 O   0  0  0  0  0  1  0  0  0  0  0  0
    3.9265   -0.6550    1.3265 O   0  0  0  0  0  0  0  0  0  0  0  0
  2  1  1  6
  2  3  1  0
  3  4  1  0
  4  5  1  0
  5  6  2  0
  6  7  1  0
  7  8  2  0
  2  9  1  0
  9 10  1  0
 10 11  2  0
 11 12  1  0
 12 13  2  0
 13 14  1  0
 14 15  2  0
 15 16  1  0
 16 17  1  0
 17 18  2  0
 18 19  1  0
 19 20  2  0
 20 21  1  0
 20 22  1  0
 22 23  2  0
 23 24  1  0
 15 25  1  0
 25 26  2  0
 25 27  1  0
 27 28  1  0
 27 29  1  0
 29 30  2  0
 31 32  1  0
 32 33  2  0
 32 34  1  0
 34 35  1  0
 35 36  1  0
 36 37  1  0
 37 38  2  0
 37 39  1  0
 39 40  1  0
 40 41  1  0
 41 42  1  0
 42 43  1  0
 42 44  2  0
  8  4  1  0
 30 10  1  0
 29 13  1  0
 23 17  1  0
M  RAD  1  43   2
M  END

