
     RDKit          3D

 43 45  0  0  0  0  0  0  0  0999 V2000
   -4.8089   -0.1269   -1.0712 C   0  0  0  0  0  0  0  0  0  0  0  0
   -3.5656    0.0475   -0.1782 C   0  0  0  0  0  0  0  0  0  0  0  0
   -2.8347   -1.2487   -0.1260 C   0  0  0  0  0  0  0  0  0  0  0  0
   -2.8413    1.2347   -0.6563 C   0  0  0  0  0  0  0  0  0  0  0  0
   -1.6203    1.6477    0.0172 C   0  0  0  0  0  0  0  0  0  0  0  0
   -0.4622    0.7654    0.0445 C   0  0  0  0  0  0  0  0  0  0  0  0
   -0.3931   -0.3435   -0.5289 O   0  0  0  0  0  0  0  0  0  0  0  0
    0.6963    1.1894    0.7816 N   0  0  0  0  0  0  0  0  0  0  0  0
    1.8465    0.3068    0.8068 C   0  0  0  0  0  0  0  0  0  0  0  0
    2.3582    0.0377   -0.6074 C   0  0  0  0  0  0  0  0  0  0  0  0
    3.5229   -0.8748   -0.4934 C   0  0  0  0  0  0  0  0  0  0  0  0
    3.6112   -2.1013   -1.1572 O   0  0  0  0  0  1  0  0  0  0  0  0
    4.4911   -0.5342    0.2396 O   0  0  0  0  0  0  0  0  0  0  0  0
   -3.4176    1.6196   -0.6965 C   0  0  0  0  0  0  0  0  0  0  0  0
   -4.2845    0.2397   -0.8278 C   0  0  2  0  0  0  0  0  0  0  0  0
   -5.6565    0.9456   -0.2288 C   0  0  0  0  0  0  0  0  0  0  0  0
   -6.5825   -0.1676   -0.2683 N   0  0  0  0  0  0  0  0  0  0  0  0
   -6.7411   -1.0061    0.7383 N   0  0  0  0  0  0  0  0  0  0  0  0
   -7.6608   -1.9315    0.4172 C   0  0  0  0  0  0  0  0  0  0  0  0
   -8.0534   -1.6204   -0.8245 N   0  0  0  0  0  0  0  0  0  0  0  0
   -7.4005   -0.5682   -1.2148 N   0  0  0  0  0  0  0  0  0  0  0  0
   -3.8446   -0.2877    0.5776 N   0  0  0  0  0  0  0  0  0  0  0  0
   -2.4380   -0.4551    0.7057 C   0  0  0  0  0  0  0  0  0  0  0  0
   -1.9970   -0.9067    1.8931 N   0  0  0  0  0  0  0  0  0  0  0  0
   -0.6882   -1.1085    2.1446 C   0  0  0  0  0  0  0  0  0  0  0  0
    0.2056   -0.8276    1.1132 C   0  0  0  0  0  0  0  0  0  0  0  0
    1.5662   -1.0215    1.3292 C   0  0  0  0  0  0  0  0  0  0  0  0
    2.4258   -0.7332    0.2852 C   0  0  0  0  0  0  0  0  0  0  0  0
    3.8122   -0.9062    0.4346 O   0  0  0  0  0  0  0  0  0  0  0  0
    4.6677    0.1736    0.2860 C   0  0  0  0  0  0  0  0  0  0  0  0
    4.2160    1.4411   -0.0086 C   0  0  0  0  0  0  0  0  0  0  0  0
    5.1234    2.4686   -0.1424 C   0  0  0  0  0  0  0  0  0  0  0  0
    6.4693    2.2550    0.0120 C   0  0  0  0  0  0  0  0  0  0  0  0
    7.2978    3.3065   -0.1332 F   0  0  0  0  0  0  0  0  0  0  0  0
    6.8926    0.9830    0.3051 C   0  0  0  0  0  0  0  0  0  0  0  0
    6.0136   -0.0580    0.4440 C   0  0  0  0  0  0  0  0  0  0  0  0
    6.4560   -1.3071    0.7340 F   0  0  0  0  0  0  0  0  0  0  0  0
    1.9293   -0.2754   -0.9058 C   0  0  0  0  0  0  0  0  0  0  0  0
    2.7191   -0.0148   -1.8530 O   0  0  0  0  0  0  0  0  0  0  0  0
    0.6265   -0.0855   -1.1248 N   0  0  0  0  0  0  0  0  0  0  0  0
    0.1281    0.4017   -2.3998 C   0  0  0  0  0  0  0  0  0  0  0  0
   -0.2253   -0.3636   -0.1121 C   0  0  0  0  0  0  0  0  0  0  0  0
   -1.5593   -0.1897   -0.2772 N   0  0  0  0  0  0  0  0  0  0  0  0
  1  2  1  0
  2  3  1  0
  2  4  1  0
  4  5  1  0
  5  6  1  0
  6  7  2  0
  6  8  1  0
  8  9  1  0
  9 10  1  0
 10 11  1  0
 11 12  1  0
 11 13  2  0
 15 14  1  1
 15 16  1  0
 16 17  1  0
 17 18  1  0
 18 19  2  0
 19 20  1  0
 20 21  2  0
 15 22  1  0
 22 23  1  0
 23 24  2  0
 24 25  1  0
 25 26  2  0
 26 27  1  0
 27 28  2  0
 28 29  1  0
 29 30  1  0
 30 31  2  0
 31 32  1  0
 32 33  2  0
 33 34  1  0
 33 35  1  0
 35 36  2  0
 36 37  1  0
 28 38  1  0
 38 39  2  0
 38 40  1  0
 40 41  1  0
 40 42  1  0
 42 43  2  0
 21 17  1  0
 43 23  1  0
 42 26  1  0
 36 30  1  0
M  RAD  1  12   2
M  END

