
     RDKit          3D

 16 16  0  0  0  0  0  0  0  0999 V2000
    3.6600    1.6783    1.0116 C   0  0  0  0  0  0  0  0  0  0  0  0
    4.1613    1.1328   -0.4787 C   0  0  1  0  0  0  0  0  0  0  0  0
    4.5648   -0.2437    0.0238 O   0  0  0  0  0  0  0  0  0  0  0  0
    2.6576    0.6886   -0.9822 C   0  0  0  0  0  0  0  0  0  0  0  0
    2.1275   -0.2949   -0.0611 C   0  0  0  0  0  0  0  0  0  0  0  0
    2.7424   -0.6380    0.9535 O   0  0  0  0  0  0  0  0  0  0  0  0
    0.8497   -0.8949   -0.3269 N   0  0  0  0  0  0  0  0  0  0  0  0
    0.3552   -1.8703    0.6136 C   0  0  0  0  0  0  0  0  0  0  0  0
   -1.0072   -2.3293    0.0766 C   0  0  0  0  0  0  0  0  0  0  0  0
   -1.8472   -1.1017    0.0217 C   0  0  0  0  0  0  0  0  0  0  0  0
   -1.8993   -0.2949   -1.0978 C   0  0  0  0  0  0  0  0  0  0  0  0
   -2.6758    0.8463   -1.1580 C   0  0  0  0  0  0  0  0  0  0  0  0
   -3.4446    1.2309   -0.0793 C   0  0  0  0  0  0  0  0  0  0  0  0
   -4.2369    2.3842   -0.1240 O   0  0  0  0  0  0  0  0  0  0  0  0
   -3.3912    0.4244    1.0369 C   0  0  0  0  0  0  0  0  0  0  0  0
   -2.6163   -0.7179    1.1025 C   0  0  0  0  0  0  0  0  0  0  0  0
  2  1  1  1
  2  3  1  0
  2  4  1  0
  4  5  1  0
  5  6  2  0
  5  7  1  0
  7  8  1  0
  8  9  1  0
  9 10  1  0
 10 11  2  0
 11 12  1  0
 12 13  2  0
 13 14  1  0
 13 15  1  0
 15 16  2  0
 16 10  1  0
M  END

