
     RDKit          3D

 12 11  0  0  0  0  0  0  0  0999 V2000
    3.6319   -0.9548   -1.5113 C   0  0  0  0  0  0  0  0  0  0  0  0
    3.6647   -0.3569   -0.0978 C   0  0  0  0  0  0  0  0  0  0  0  0
    3.5321    1.1666   -0.2198 C   0  0  0  0  0  0  0  0  0  0  0  0
    2.3663   -0.8122    0.5883 C   0  0  0  0  0  0  0  0  0  0  0  0
    1.2700   -0.2898   -0.2076 C   0  0  0  0  0  0  0  0  0  0  0  0
   -0.1039   -0.5515    0.1847 C   0  0  0  0  0  0  0  0  0  0  0  0
   -0.5133   -1.1956    1.1598 O   0  0  0  0  0  0  0  0  0  0  0  0
   -1.0808    0.0172   -0.6805 N   0  0  0  0  0  0  0  0  0  0  0  0
   -2.4844   -0.0747   -0.5455 C   0  0  0  0  0  0  0  0  0  0  0  0
   -2.8869    0.5967    0.8968 C   0  0  1  0  0  0  0  0  0  0  0  0
   -3.0256    2.1326    0.2799 C   0  0  0  0  0  0  0  0  0  0  0  0
   -4.3702    0.3224    0.6834 O   0  0  0  0  0  0  0  0  0  0  0  0
  1  2  1  0
  2  3  1  0
  2  4  1  0
  4  5  1  0
  5  6  1  0
  6  7  2  0
  6  8  1  0
  8  9  1  0
  9 10  1  0
 10 11  1  6
 10 12  1  0
M  END

