
     RDKit          3D

 42 44  0  0  0  0  0  0  0  0999 V2000
    3.8214    0.9336   -1.6225 C   0  0  0  0  0  0  0  0  0  0  0  0
    3.8259   -0.0205   -0.4238 C   0  0  0  0  0  0  0  0  0  0  0  0
    4.9991   -0.9844   -0.5983 C   0  0  0  0  0  0  0  0  0  0  0  0
    2.5172   -0.8220   -0.3984 C   0  0  0  0  0  0  0  0  0  0  0  0
    1.3766    0.1537   -0.2802 C   0  0  0  0  0  0  0  0  0  0  0  0
    0.1396   -0.5946   -0.2557 N   0  0  0  0  0  0  0  0  0  0  0  0
   -1.1441    0.0156   -0.1507 C   0  0  0  0  0  0  0  0  0  0  0  0
   -1.1508    1.2862   -0.0775 O   0  0  0  0  0  0  0  0  0  0  0  0
   -2.3925   -0.7870   -0.1286 C   0  0  0  0  0  0  0  0  0  0  0  0
   -3.5534    0.0919   -0.0148 C   0  0  0  0  0  0  0  0  0  0  0  0
   -3.6712    0.9654    1.1529 C   0  0  0  0  0  0  0  0  0  0  0  0
   -4.7676   -0.2379   -0.7692 C   0  0  0  0  0  0  0  0  0  0  0  0
   -3.2425   -1.8000    0.2710 C   0  0  0  0  0  0  0  0  0  0  0  0
   -4.1214   -0.9708    1.4102 C   0  0  2  0  0  0  0  0  0  0  0  0
   -5.5677   -1.4841    0.7865 C   0  0  0  0  0  0  0  0  0  0  0  0
   -5.6769   -1.0534   -0.5396 N   0  0  0  0  0  0  0  0  0  0  0  0
   -5.2698   -1.7253   -1.6136 N   0  0  0  0  0  0  0  0  0  0  0  0
   -5.5204   -1.0354   -2.7323 C   0  0  0  0  0  0  0  0  0  0  0  0
   -6.1025    0.1026   -2.3394 N   0  0  0  0  0  0  0  0  0  0  0  0
   -6.1859    0.0697   -1.0191 N   0  0  0  0  0  0  0  0  0  0  0  0
   -4.0308    0.3923    0.6240 N   0  0  0  0  0  0  0  0  0  0  0  0
   -2.7072    0.8247    0.4349 C   0  0  0  0  0  0  0  0  0  0  0  0
   -2.4090    1.9835   -0.2232 N   0  0  0  0  0  0  0  0  0  0  0  0
   -1.1416    2.3945   -0.4025 C   0  0  0  0  0  0  0  0  0  0  0  0
   -0.1128    1.6385    0.0837 C   0  0  0  0  0  0  0  0  0  0  0  0
    1.2205    1.9846   -0.0550 C   0  0  0  0  0  0  0  0  0  0  0  0
    2.1501    1.1428    0.4764 C   0  0  0  0  0  0  0  0  0  0  0  0
    3.4885    1.4826    0.3416 O   0  0  0  0  0  0  0  0  0  0  0  0
    4.3967    0.6605   -0.3232 C   0  0  0  0  0  0  0  0  0  0  0  0
    5.4956    0.1712    0.3749 C   0  0  0  0  0  0  0  0  0  0  0  0
    6.3750   -0.6427   -0.3220 C   0  0  0  0  0  0  0  0  0  0  0  0
    6.2019   -0.9715   -1.6385 C   0  0  0  0  0  0  0  0  0  0  0  0
    7.1188   -1.7742   -2.2288 F   0  0  0  0  0  0  0  0  0  0  0  0
    5.0990   -0.4658   -2.2957 C   0  0  0  0  0  0  0  0  0  0  0  0
    4.1808    0.3547   -1.6552 C   0  0  0  0  0  0  0  0  0  0  0  0
    3.1086    0.8288   -2.3463 F   0  0  0  0  0  0  0  0  0  0  0  0
    1.8264   -0.0217    1.1365 C   0  0  0  0  0  0  0  0  0  0  0  0
    2.7611   -0.7544    1.6049 O   0  0  0  0  0  0  0  0  0  0  0  0
    0.5377   -0.3402    1.2613 N   0  0  0  0  0  0  0  0  0  0  0  0
    0.2149   -1.5776    1.9637 C   0  0  0  0  0  0  0  0  0  0  0  0
   -0.3962    0.4688    0.7487 C   0  0  0  0  0  0  0  0  0  0  0  0
   -1.6910    0.1174    0.8923 N   0  0  0  0  0  0  0  0  0  0  0  0
  1  2  1  0
  2  3  1  0
  2  4  1  0
  4  5  1  0
  5  6  1  0
  6  7  1  0
  7  8  2  0
  7  9  1  0
  9 10  1  0
 10 11  1  0
 10 12  1  0
 14 13  1  6
 14 15  1  0
 15 16  1  0
 16 17  1  0
 17 18  2  0
 18 19  1  0
 19 20  2  0
 14 21  1  0
 21 22  1  0
 22 23  2  0
 23 24  1  0
 24 25  2  0
 25 26  1  0
 26 27  2  0
 27 28  1  0
 28 29  1  0
 29 30  2  0
 30 31  1  0
 31 32  2  0
 32 33  1  0
 32 34  1  0
 34 35  2  0
 35 36  1  0
 27 37  1  0
 37 38  2  0
 37 39  1  0
 39 40  1  0
 39 41  1  0
 41 42  2  0
 20 16  1  0
 42 22  1  0
 41 25  1  0
 35 29  1  0
M  END

