
     RDKit          3D

 38 40  0  0  0  0  0  0  0  0999 V2000
    3.2720   -0.7631    0.9755 C   0  0  0  0  0  0  0  0  0  0  0  0
    2.2400   -0.4093   -0.0939 C   0  0  0  0  0  0  0  0  0  0  0  0
    0.9893   -0.1725    0.5854 N   0  0  0  0  0  0  0  0  0  0  0  0
   -0.1379    0.1763   -0.1950 C   0  0  0  0  0  0  0  0  0  0  0  0
    0.0272    0.2565   -1.4315 O   0  0  0  0  0  0  0  0  0  0  0  0
   -1.4752    0.4442    0.3803 C   0  0  0  0  0  0  0  0  0  0  0  0
   -2.4388    0.7861   -0.7346 C   0  0  0  0  0  0  0  0  0  0  0  0
   -2.4765   -0.3182   -1.5887 O   0  0  0  0  0  0  0  0  0  0  0  0
   -3.9231    0.4489   -2.3461 C   0  0  0  0  0  0  0  0  0  0  0  0
   -4.1207   -1.1783   -2.2734 C   0  0  2  0  0  0  0  0  0  0  0  0
   -5.7452   -1.0653   -2.1337 C   0  0  0  0  0  0  0  0  0  0  0  0
   -6.0458   -0.3109   -0.9461 N   0  0  0  0  0  0  0  0  0  0  0  0
   -6.2172    0.9686   -0.7364 N   0  0  0  0  0  0  0  0  0  0  0  0
   -6.4815    1.1596    0.5670 C   0  0  0  0  0  0  0  0  0  0  0  0
   -6.4751   -0.0155    1.1793 N   0  0  0  0  0  0  0  0  0  0  0  0
   -6.2061   -0.8957    0.2301 N   0  0  0  0  0  0  0  0  0  0  0  0
   -3.8204   -1.3358   -0.7476 N   0  0  0  0  0  0  0  0  0  0  0  0
   -2.5719   -0.9339   -0.2608 C   0  0  0  0  0  0  0  0  0  0  0  0
   -2.3720   -1.0932    1.0568 N   0  0  0  0  0  0  0  0  0  0  0  0
   -1.2384   -0.7613    1.6816 C   0  0  0  0  0  0  0  0  0  0  0  0
   -0.2269   -0.2318    0.9463 C   0  0  0  0  0  0  0  0  0  0  0  0
    0.9544    0.1238    1.5440 C   0  0  0  0  0  0  0  0  0  0  0  0
    1.9788    0.6607    0.7952 C   0  0  0  0  0  0  0  0  0  0  0  0
    3.1446    1.0061    1.4156 O   0  0  0  0  0  0  0  0  0  0  0  0
    4.3923    0.4947    1.1357 C   0  0  0  0  0  0  0  0  0  0  0  0
    5.3746    1.3968    0.7200 C   0  0  0  0  0  0  0  0  0  0  0  0
    6.6510    0.9685    0.4194 C   0  0  0  0  0  0  0  0  0  0  0  0
    6.9213   -0.3797    0.5440 C   0  0  0  0  0  0  0  0  0  0  0  0
    8.1490   -0.8754    0.2675 F   0  0  0  0  0  0  0  0  0  0  0  0
    5.9416   -1.2833    0.9592 C   0  0  0  0  0  0  0  0  0  0  0  0
    4.6768   -0.8480    1.2554 C   0  0  0  0  0  0  0  0  0  0  0  0
    3.6734   -1.6662    1.6646 F   0  0  0  0  0  0  0  0  0  0  0  0
    1.7819    0.8278   -0.5585 C   0  0  0  0  0  0  0  0  0  0  0  0
    2.7007    1.3215   -1.2971 O   0  0  0  0  0  0  0  0  0  0  0  0
    0.6157    0.4712   -1.1174 N   0  0  0  0  0  0  0  0  0  0  0  0
    0.4603    0.6706   -2.5604 C   0  0  0  0  0  0  0  0  0  0  0  0
   -0.3956   -0.0522   -0.4157 C   0  0  0  0  0  0  0  0  0  0  0  0
   -1.5766   -0.4122   -0.9882 N   0  0  0  0  0  0  0  0  0  0  0  0
  1  2  1  0
  2  3  1  0
  3  4  1  0
  4  5  2  0
  4  6  1  0
  6  7  1  0
  7  8  1  0
 10  9  1  1
 10 11  1  0
 11 12  1  0
 12 13  1  0
 13 14  2  0
 14 15  1  0
 15 16  2  0
 10 17  1  0
 17 18  1  0
 18 19  2  0
 19 20  1  0
 20 21  2  0
 21 22  1  0
 22 23  2  0
 23 24  1  0
 24 25  1  0
 25 26  2  0
 26 27  1  0
 27 28  2  0
 28 29  1  0
 28 30  1  0
 30 31  2  0
 31 32  1  0
 23 33  1  0
 33 34  2  0
 33 35  1  0
 35 36  1  0
 35 37  1  0
 37 38  2  0
 16 12  1  0
 38 18  1  0
 37 21  1  0
 31 25  1  0
M  END

