
     RDKit          3D

 43 45  0  0  0  0  0  0  0  0999 V2000
   -4.2609    1.3879    0.7056 C   0  0  0  0  0  0  0  0  0  0  0  0
   -3.4161    0.1166    0.6597 C   0  0  0  0  0  0  0  0  0  0  0  0
   -2.9997    0.1052   -0.9325 C   0  0  2  0  0  0  0  0  0  0  0  0
   -2.1442   -1.2415   -0.8278 C   0  0  0  0  0  0  0  0  0  0  0  0
   -1.8776    1.1973   -0.7920 C   0  0  0  0  0  0  0  0  0  0  0  0
   -0.8086    1.0265    0.0026 N   0  0  0  0  0  0  0  0  0  0  0  0
    0.2798    0.1546    0.0532 C   0  0  0  0  0  0  0  0  0  0  0  0
    0.3964   -0.7286   -0.8223 O   0  0  0  0  0  0  0  0  0  0  0  0
    1.3009    0.2825    1.1555 C   0  0  0  0  0  0  0  0  0  0  0  0
    2.3785   -0.7474    1.0196 C   0  0  0  0  0  0  0  0  0  0  0  0
    3.1255   -0.6242   -0.3018 C   0  0  0  0  0  0  0  0  0  0  0  0
    3.7872    0.7290   -0.4440 C   0  0  0  0  0  0  0  0  0  0  0  0
    4.2386   -1.6578   -0.2579 C   0  0  0  0  0  0  0  0  0  0  0  0
    3.8787   -0.5079   -0.2527 C   0  0  0  0  0  0  0  0  0  0  0  0
    4.1455    0.9119    0.5159 C   0  0  2  0  0  0  0  0  0  0  0  0
    5.7081    0.5655    0.8597 C   0  0  0  0  0  0  0  0  0  0  0  0
    6.3679    0.3656   -0.3884 N   0  0  0  0  0  0  0  0  0  0  0  0
    6.4692   -0.8059   -1.0031 N   0  0  0  0  0  0  0  0  0  0  0  0
    7.1485   -0.6701   -2.1612 C   0  0  0  0  0  0  0  0  0  0  0  0
    7.4614    0.6462   -2.2296 N   0  0  0  0  0  0  0  0  0  0  0  0
    6.9781    1.2462   -1.1473 N   0  0  0  0  0  0  0  0  0  0  0  0
    3.6347    0.3874    1.8908 N   0  0  0  0  0  0  0  0  0  0  0  0
    2.2682   -0.0143    1.7994 C   0  0  0  0  0  0  0  0  0  0  0  0
    1.6079   -0.5054    2.8730 N   0  0  0  0  0  0  0  0  0  0  0  0
    0.3193   -0.8962    2.8318 C   0  0  0  0  0  0  0  0  0  0  0  0
   -0.4228   -0.8190    1.6707 C   0  0  0  0  0  0  0  0  0  0  0  0
   -1.7420   -1.2105    1.5962 C   0  0  0  0  0  0  0  0  0  0  0  0
   -2.3922   -1.0908    0.3827 C   0  0  0  0  0  0  0  0  0  0  0  0
   -3.6886   -1.4722    0.2972 O   0  0  0  0  0  0  0  0  0  0  0  0
   -4.6494   -0.5509   -0.0708 C   0  0  0  0  0  0  0  0  0  0  0  0
   -5.3855   -0.7816   -1.1862 C   0  0  0  0  0  0  0  0  0  0  0  0
   -6.3488    0.1306   -1.5655 C   0  0  0  0  0  0  0  0  0  0  0  0
   -6.5659    1.2661   -0.8236 C   0  0  0  0  0  0  0  0  0  0  0  0
   -7.4908    2.1956   -1.1401 F   0  0  0  0  0  0  0  0  0  0  0  0
   -5.8131    1.5071    0.3216 C   0  0  0  0  0  0  0  0  0  0  0  0
   -4.8679    0.5753    0.6611 C   0  0  0  0  0  0  0  0  0  0  0  0
   -4.1341    0.7998    1.7680 F   0  0  0  0  0  0  0  0  0  0  0  0
   -1.7350   -0.5926   -0.7214 C   0  0  0  0  0  0  0  0  0  0  0  0
   -2.3318   -0.4836   -1.8319 O   0  0  0  0  0  0  0  0  0  0  0  0
   -0.4496   -0.2296   -0.5792 N   0  0  0  0  0  0  0  0  0  0  0  0
    0.2415    0.2942   -1.7399 C   0  0  0  0  0  0  0  0  0  0  0  0
    0.2484   -0.3182    0.5733 C   0  0  0  0  0  0  0  0  0  0  0  0
    1.5400    0.0576    0.6742 N   0  0  0  0  0  0  0  0  0  0  0  0
  1  2  1  0
  2  3  1  0
  3  4  1  1
  3  5  1  0
  5  6  1  0
  6  7  1  0
  7  8  2  0
  7  9  1  0
  9 10  1  0
 10 11  1  0
 11 12  1  0
 11 13  1  0
 15 14  1  6
 15 16  1  0
 16 17  1  0
 17 18  1  0
 18 19  2  0
 19 20  1  0
 20 21  2  0
 15 22  1  0
 22 23  1  0
 23 24  2  0
 24 25  1  0
 25 26  2  0
 26 27  1  0
 27 28  2  0
 28 29  1  0
 29 30  1  0
 30 31  2  0
 31 32  1  0
 32 33  2  0
 33 34  1  0
 33 35  1  0
 35 36  2  0
 36 37  1  0
 28 38  1  0
 38 39  2  0
 38 40  1  0
 40 41  1  0
 40 42  1  0
 42 43  2  0
 21 17  1  0
 43 23  1  0
 42 26  1  0
 36 30  1  0
M  END

