
     RDKit          3D

 17 16  0  0  0  0  0  0  0  0999 V2000
   -6.1492   -2.1882    1.0804 N   0  0  0  0  0  0  0  0  0  0  0  0
   -5.0436   -2.2280    0.1710 C   0  0  0  0  0  0  0  0  0  0  0  0
   -5.1383   -2.8141   -0.9680 N   0  0  0  0  0  4  0  0  0  0  0  0
   -3.7938   -1.6233    0.4846 N   0  0  0  0  0  0  0  0  0  0  0  0
   -2.6732   -1.6770   -0.4647 C   0  0  0  0  0  0  0  0  0  0  0  0
   -1.5007   -0.9499    0.1595 C   0  0  0  0  0  0  0  0  0  0  0  0
   -1.9116    0.4679    0.4199 C   0  0  0  0  0  0  0  0  0  0  0  0
   -0.8202    1.2922    1.0432 C   0  0  0  0  0  0  0  0  0  0  0  0
    0.3536    1.3201    0.1318 C   0  0  0  0  0  0  0  0  0  0  0  0
    0.3245    0.7128   -0.9629 O   0  0  0  0  0  0  0  0  0  0  0  0
    1.5395    2.0429    0.4907 N   0  0  0  0  0  0  0  0  0  0  0  0
    2.6596    2.0435   -0.4268 C   0  0  0  0  0  0  0  0  0  0  0  0
    3.1889    0.6588   -0.7015 C   0  0  0  0  0  0  0  0  0  0  0  0
    3.6709   -0.0302    0.5547 C   0  0  0  0  0  0  0  0  0  0  0  0
    4.7687    0.7442    1.1960 C   0  0  0  0  0  0  0  0  0  0  0  0
    5.2502    1.9308    0.6753 O   0  0  0  0  0  1  0  0  0  0  0  0
    5.2747    0.2975    2.2525 O   0  0  0  0  0  0  0  0  0  0  0  0
  1  2  1  0
  2  3  2  0
  2  4  1  0
  4  5  1  0
  5  6  1  0
  6  7  1  0
  7  8  1  0
  8  9  1  0
  9 10  2  0
  9 11  1  0
 11 12  1  0
 12 13  1  0
 13 14  1  0
 14 15  1  0
 15 16  1  0
 15 17  2  0
M  CHG  1   3   1
M  RAD  1  16   2
M  END

