
     RDKit          3D

 14 13  0  0  0  0  0  0  0  0999 V2000
   -2.7689   -2.0294    1.1325 C   0  0  0  0  0  0  0  0  0  0  0  0
   -2.6372   -1.0531   -0.0197 C   0  0  0  0  0  0  0  0  0  0  0  0
   -3.6355    0.1696    0.3148 C   0  0  2  0  0  0  0  0  0  0  0  0
   -3.2506    0.9844   -1.0858 C   0  0  0  0  0  0  0  0  0  0  0  0
   -2.6493    0.9783    1.2616 C   0  0  0  0  0  0  0  0  0  0  0  0
   -1.5001    1.4569    0.8195 N   0  0  0  0  0  0  0  0  0  0  0  0
   -0.3564    0.8662    0.3201 C   0  0  0  0  0  0  0  0  0  0  0  0
   -0.1898   -0.3520    0.1943 O   0  0  0  0  0  0  0  0  0  0  0  0
    0.8263    1.7027   -0.1286 C   0  0  0  0  0  0  0  0  0  0  0  0
    1.9545    0.8632   -0.6330 C   0  0  0  0  0  0  0  0  0  0  0  0
    2.4728   -0.0966    0.4428 C   0  0  0  0  0  0  0  0  0  0  0  0
    3.5793   -0.9009   -0.0952 C   0  0  0  0  0  0  0  0  0  0  0  0
    4.2004   -1.8492    0.7344 N   0  0  0  0  0  0  0  0  0  0  0  0
    3.9544   -0.7400   -1.2655 O   0  0  0  0  0  0  0  0  0  0  0  0
  1  2  1  0
  2  3  1  0
  3  4  1  6
  3  5  1  0
  5  6  1  0
  6  7  1  0
  7  8  2  0
  7  9  1  0
  9 10  1  0
 10 11  1  0
 11 12  1  0
 12 13  1  0
 12 14  2  0
M  END

