
     RDKit          3D

 12 12  0  0  0  0  0  0  0  0999 V2000
    3.6757   -1.5727    0.2393 C   0  0  0  0  0  0  0  0  0  0  0  0
    3.1354   -0.2742    0.5752 N   0  0  0  0  0  0  0  0  0  0  0  0
    1.9699    0.1788   -0.1233 C   0  0  0  0  0  0  0  0  0  0  0  0
    1.4991   -0.5981   -0.9873 O   0  0  0  0  0  0  0  0  0  0  0  0
    1.3620    1.4901    0.1640 C   0  0  0  0  0  0  0  0  0  0  0  0
    0.1116    1.6886   -0.5924 C   0  0  0  0  0  0  0  0  0  0  0  0
   -0.9295    0.7142   -0.2531 C   0  0  0  0  0  0  0  0  0  0  0  0
   -1.7643    0.9911    0.8237 C   0  0  0  0  0  0  0  0  0  0  0  0
   -2.7650    0.1446    1.1837 C   0  0  0  0  0  0  0  0  0  0  0  0
   -2.9850   -1.0150    0.4937 C   0  0  0  0  0  0  0  0  0  0  0  0
   -2.1641   -1.2981   -0.5737 C   0  0  0  0  0  0  0  0  0  0  0  0
   -1.1459   -0.4493   -0.9498 C   0  0  0  0  0  0  0  0  0  0  0  0
  1  2  1  0
  2  3  1  0
  3  4  2  0
  3  5  1  0
  5  6  1  0
  6  7  1  0
  7  8  2  0
  8  9  1  0
  9 10  2  0
 10 11  1  0
 11 12  2  0
 12  7  1  0
M  END

