
     RDKit          3D

 11 11  0  0  0  0  0  0  0  0999 V2000
   -0.3508   -1.4149   -0.9897 O   0  0  0  0  0  0  0  0  0  0  0  0
   -0.0149   -0.6015   -0.0940 C   0  0  0  0  0  0  0  0  0  0  0  0
    1.2497   -0.0686    0.0646 N   0  0  0  0  0  0  0  0  0  0  0  0
    2.3939   -0.3091   -0.7442 C   0  0  0  0  0  0  0  0  0  0  0  0
    3.3597    0.8097   -0.1858 C   0  0  0  0  0  0  0  0  0  0  0  0
    4.5118    0.6215   -1.0259 O   0  0  0  0  0  0  0  0  0  0  0  0
   -1.0991   -0.0579    0.9468 C   0  0  2  0  0  0  0  0  0  0  0  0
   -2.2983   -1.0495    0.4298 C   0  0  0  0  0  0  0  0  0  0  0  0
   -3.4232   -0.0729    0.3923 C   0  0  0  0  0  0  0  0  0  0  0  0
   -2.8210    1.0225   -0.3495 C   0  0  0  0  0  0  0  0  0  0  0  0
   -1.5076    1.1207   -0.1562 N   0  0  0  0  0  0  0  0  0  0  0  0
  1  2  2  0
  2  3  1  0
  3  4  1  0
  4  5  1  0
  5  6  1  0
  7  2  1  6
  7  8  1  0
  8  9  1  0
  9 10  1  0
 10 11  1  0
 11  7  1  0
M  END

