
     RDKit          3D

 43 45  0  0  0  0  0  0  0  0999 V2000
   -3.6570   -1.4015   -1.4444 C   0  0  0  0  0  0  0  0  0  0  0  0
   -3.0849   -0.3741   -0.4923 C   0  0  0  0  0  0  0  0  0  0  0  0
   -4.1596    0.4700    0.1407 C   0  0  0  0  0  0  0  0  0  0  0  0
   -2.1730    0.5374   -1.2869 C   0  0  0  0  0  0  0  0  0  0  0  0
   -1.5453    1.6021   -0.4418 C   0  0  0  0  0  0  0  0  0  0  0  0
   -0.7367    1.0890    0.6309 N   0  0  0  0  0  0  0  0  0  0  0  0
    0.3991    0.2637    0.4619 C   0  0  0  0  0  0  0  0  0  0  0  0
    0.7140   -0.0362   -0.7254 O   0  0  0  0  0  0  0  0  0  0  0  0
    1.1661   -0.2129    1.6393 C   0  0  0  0  0  0  0  0  0  0  0  0
    2.3219   -1.0677    1.2282 C   0  0  0  0  0  0  0  0  0  0  0  0
    3.2786   -0.3483    0.3549 C   0  0  0  0  0  0  0  0  0  0  0  0
    4.3980   -1.0251   -0.0992 O   0  0  0  0  0  1  0  0  0  0  0  0
    3.0786    0.8484    0.0339 O   0  0  0  0  0  0  0  0  0  0  0  0
    4.0756    3.2047    1.5088 C   0  0  0  0  0  0  0  0  0  0  0  0
    5.0621    1.8873    1.3051 C   0  0  2  0  0  0  0  0  0  0  0  0
    4.7183    1.7381   -0.3044 C   0  0  0  0  0  0  0  0  0  0  0  0
    5.5280    0.5766   -0.6935 N   0  0  0  0  0  0  0  0  0  0  0  0
    5.1148   -0.6530   -0.6532 N   0  0  0  0  0  0  0  0  0  0  0  0
    6.0941   -1.4775   -1.0734 C   0  0  0  0  0  0  0  0  0  0  0  0
    7.1341   -0.6834   -1.3747 N   0  0  0  0  0  0  0  0  0  0  0  0
    6.7631    0.5553   -1.1351 N   0  0  0  0  0  0  0  0  0  0  0  0
    3.9857    0.8496    1.7891 N   0  0  0  0  0  0  0  0  0  0  0  0
    2.7603    0.7865    1.1181 C   0  0  0  0  0  0  0  0  0  0  0  0
    2.3967    1.5370    0.0787 N   0  0  0  0  0  0  0  0  0  0  0  0
    1.2127    1.4560   -0.5477 C   0  0  0  0  0  0  0  0  0  0  0  0
    0.2648    0.5204   -0.0977 C   0  0  0  0  0  0  0  0  0  0  0  0
   -0.9405    0.3753   -0.6654 C   0  0  0  0  0  0  0  0  0  0  0  0
   -1.8903   -0.5874   -0.1858 C   0  0  0  0  0  0  0  0  0  0  0  0
   -3.0611   -0.6660   -0.8079 O   0  0  0  0  0  0  0  0  0  0  0  0
   -4.3828   -0.4807   -0.6299 C   0  0  0  0  0  0  0  0  0  0  0  0
   -4.9718    0.5565   -1.4170 C   0  0  0  0  0  0  0  0  0  0  0  0
   -6.2699    0.8762   -1.3683 C   0  0  0  0  0  0  0  0  0  0  0  0
   -7.1479    0.2084   -0.5336 C   0  0  0  0  0  0  0  0  0  0  0  0
   -8.4546    0.5034   -0.4579 F   0  0  0  0  0  0  0  0  0  0  0  0
   -6.5936   -0.7847    0.2213 C   0  0  0  0  0  0  0  0  0  0  0  0
   -5.2551   -1.1339    0.1882 C   0  0  0  0  0  0  0  0  0  0  0  0
   -4.9079   -2.1521    0.9813 F   0  0  0  0  0  0  0  0  0  0  0  0
   -1.4695   -1.3266    0.8734 C   0  0  0  0  0  0  0  0  0  0  0  0
   -2.2048   -2.2310    1.4105 O   0  0  0  0  0  0  0  0  0  0  0  0
   -0.2339   -1.1360    1.4106 N   0  0  0  0  0  0  0  0  0  0  0  0
    0.1388   -1.9616    2.5366 C   0  0  0  0  0  0  0  0  0  0  0  0
    0.6585   -0.2481    0.9796 C   0  0  0  0  0  0  0  0  0  0  0  0
    1.8760   -0.1094    1.5632 N   0  0  0  0  0  0  0  0  0  0  0  0
  1  2  1  0
  2  3  1  0
  2  4  1  0
  4  5  1  0
  5  6  1  0
  6  7  1  0
  7  8  2  0
  7  9  1  0
  9 10  1  0
 10 11  1  0
 11 12  1  0
 11 13  2  0
 15 14  1  1
 15 16  1  0
 16 17  1  0
 17 18  1  0
 18 19  2  0
 19 20  1  0
 20 21  2  0
 15 22  1  0
 22 23  1  0
 23 24  2  0
 24 25  1  0
 25 26  2  0
 26 27  1  0
 27 28  2  0
 28 29  1  0
 29 30  1  0
 30 31  2  0
 31 32  1  0
 32 33  2  0
 33 34  1  0
 33 35  1  0
 35 36  2  0
 36 37  1  0
 28 38  1  0
 38 39  2  0
 38 40  1  0
 40 41  1  0
 40 42  1  0
 42 43  2  0
 21 17  1  0
 43 23  1  0
 42 26  1  0
 36 30  1  0
M  RAD  1  12   2
M  END

