
     RDKit          3D

 45 48  0  0  0  0  0  0  0  0999 V2000
    5.4186    0.7715    1.9471 C   0  0  0  0  0  0  0  0  0  0  0  0
    4.2644    0.4567    1.0265 C   0  0  0  0  0  0  0  0  0  0  0  0
    4.4650    1.0518   -0.3448 C   0  0  0  0  0  0  0  0  0  0  0  0
    3.9845   -1.0313    0.9733 C   0  0  0  0  0  0  0  0  0  0  0  0
    2.8446   -1.3654    0.0669 C   0  0  0  0  0  0  0  0  0  0  0  0
    1.6640   -0.6851    0.5653 N   0  0  0  0  0  0  0  0  0  0  0  0
    0.4296   -0.8270   -0.1084 C   0  0  0  0  0  0  0  0  0  0  0  0
    0.4066   -1.5539   -1.1350 O   0  0  0  0  0  0  0  0  0  0  0  0
   -0.7996   -0.1288    0.3963 C   0  0  0  0  0  0  0  0  0  0  0  0
   -1.9642   -0.4600   -0.5156 C   0  0  0  0  0  0  0  0  0  0  0  0
   -3.1800    0.2230   -0.0271 C   0  0  0  0  0  0  0  0  0  0  0  0
   -3.3174    1.0455    1.0717 C   0  0  0  0  0  0  0  0  0  0  0  0
   -4.5936    1.4597    1.1605 N   0  0  0  0  0  0  0  0  0  0  0  0
   -5.2379    0.9007    0.1298 C   0  0  0  0  0  0  0  0  0  0  0  0
   -4.3846    0.1426   -0.6033 N   0  0  0  0  0  0  0  0  0  0  0  0
    3.9093   -0.6353   -2.5037 C   0  0  0  0  0  0  0  0  0  0  0  0
    4.8109   -0.0695   -1.2266 C   0  0  2  0  0  0  0  0  0  0  0  0
    5.7191   -1.4762   -1.1609 C   0  0  0  0  0  0  0  0  0  0  0  0
    6.5836   -1.1525   -0.0714 N   0  0  0  0  0  0  0  0  0  0  0  0
    7.7553   -0.5575   -0.1401 N   0  0  0  0  0  0  0  0  0  0  0  0
    8.2450   -0.4365    1.0930 C   0  0  0  0  0  0  0  0  0  0  0  0
    7.3431   -0.9731    1.9240 N   0  0  0  0  0  0  0  0  0  0  0  0
    6.3317   -1.4068    1.1925 N   0  0  0  0  0  0  0  0  0  0  0  0
    3.7724   -0.6061   -0.1553 N   0  0  0  0  0  0  0  0  0  0  0  0
    2.4631   -0.0169   -0.3302 C   0  0  0  0  0  0  0  0  0  0  0  0
    2.1729    0.8646   -1.2739 N   0  0  0  0  0  0  0  0  0  0  0  0
    0.9762    1.4346   -1.4716 C   0  0  0  0  0  0  0  0  0  0  0  0
   -0.0555    1.0825   -0.6256 C   0  0  0  0  0  0  0  0  0  0  0  0
   -1.3241    1.6015   -0.7325 C   0  0  0  0  0  0  0  0  0  0  0  0
   -2.2759    1.1791    0.1655 C   0  0  0  0  0  0  0  0  0  0  0  0
   -3.5700    1.6708    0.1020 O   0  0  0  0  0  0  0  0  0  0  0  0
   -4.6564    0.8086   -0.1032 C   0  0  0  0  0  0  0  0  0  0  0  0
   -4.4946   -0.5432   -0.2492 C   0  0  0  0  0  0  0  0  0  0  0  0
   -5.5922   -1.3500   -0.4488 C   0  0  0  0  0  0  0  0  0  0  0  0
   -6.8624   -0.8422   -0.5079 C   0  0  0  0  0  0  0  0  0  0  0  0
   -7.9351   -1.6379   -0.7038 F   0  0  0  0  0  0  0  0  0  0  0  0
   -7.0399    0.5333   -0.3605 C   0  0  0  0  0  0  0  0  0  0  0  0
   -5.9249    1.3482   -0.1583 C   0  0  0  0  0  0  0  0  0  0  0  0
   -6.1196    2.6775   -0.0181 F   0  0  0  0  0  0  0  0  0  0  0  0
   -1.9560    0.2610    1.1412 C   0  0  0  0  0  0  0  0  0  0  0  0
   -2.8821   -0.0939    1.9475 O   0  0  0  0  0  0  0  0  0  0  0  0
   -0.7208   -0.2449    1.2460 N   0  0  0  0  0  0  0  0  0  0  0  0
   -0.3794   -1.2116    2.2714 C   0  0  0  0  0  0  0  0  0  0  0  0
    0.2304    0.1673    0.3605 C   0  0  0  0  0  0  0  0  0  0  0  0
    1.4760   -0.3749    0.5047 N   0  0  0  0  0  0  0  0  0  0  0  0
  1  2  1  0
  2  3  1  0
  2  4  1  0
  4  5  1  0
  5  6  1  0
  6  7  1  0
  7  8  2  0
  7  9  1  0
  9 10  1  0
 10 11  1  0
 11 12  2  0
 12 13  1  0
 13 14  1  0
 14 15  2  0
 17 16  1  6
 17 18  1  0
 18 19  1  0
 19 20  1  0
 20 21  2  0
 21 22  1  0
 22 23  2  0
 17 24  1  0
 24 25  1  0
 25 26  2  0
 26 27  1  0
 27 28  2  0
 28 29  1  0
 29 30  2  0
 30 31  1  0
 31 32  1  0
 32 33  2  0
 33 34  1  0
 34 35  2  0
 35 36  1  0
 35 37  1  0
 37 38  2  0
 38 39  1  0
 30 40  1  0
 40 41  2  0
 40 42  1  0
 42 43  1  0
 42 44  1  0
 44 45  2  0
 15 11  1  0
 23 19  1  0
 45 25  1  0
 44 28  1  0
 38 32  1  0
M  END

