
     RDKit          3D

 45 48  0  0  0  0  0  0  0  0999 V2000
    5.8599   -0.7367   -1.5611 C   0  0  0  0  0  0  0  0  0  0  0  0
    4.0712   -0.7244   -1.6495 S   0  0  0  0  0  0  0  0  0  0  0  0
    3.3227   -1.8060   -0.3864 C   0  0  0  0  0  0  0  0  0  0  0  0
    3.5822   -1.2798    0.9880 C   0  0  0  0  0  0  0  0  0  0  0  0
    3.0255    0.0283    1.3262 C   0  0  0  0  0  0  0  0  0  0  0  0
    1.6445    0.2396    1.3611 N   0  0  0  0  0  0  0  0  0  0  0  0
    0.6460    0.1135    0.3932 C   0  0  0  0  0  0  0  0  0  0  0  0
    1.0011   -0.2613   -0.7516 O   0  0  0  0  0  0  0  0  0  0  0  0
   -0.7951    0.3986    0.6545 C   0  0  0  0  0  0  0  0  0  0  0  0
   -1.6334    0.1683   -0.5813 C   0  0  0  0  0  0  0  0  0  0  0  0
   -3.0504    0.4783   -0.2269 C   0  0  0  0  0  0  0  0  0  0  0  0
   -3.6468    1.7163   -0.3454 C   0  0  0  0  0  0  0  0  0  0  0  0
   -4.9077    1.6300    0.0574 N   0  0  0  0  0  0  0  0  0  0  0  0
   -5.1166    0.3653    0.4262 C   0  0  0  0  0  0  0  0  0  0  0  0
   -4.0029   -0.3300    0.2570 N   0  0  0  0  0  0  0  0  0  0  0  0
    3.4296   -3.4983   -0.5311 C   0  0  0  0  0  0  0  0  0  0  0  0
    4.5281   -2.2860   -0.6343 C   0  0  2  0  0  0  0  0  0  0  0  0
    3.9966   -1.5375    0.7216 C   0  0  0  0  0  0  0  0  0  0  0  0
    4.8497   -0.3762    0.8565 N   0  0  0  0  0  0  0  0  0  0  0  0
    5.9939   -0.2823    1.5001 N   0  0  0  0  0  0  0  0  0  0  0  0
    6.4339    0.9677    1.3638 C   0  0  0  0  0  0  0  0  0  0  0  0
    5.5425    1.6357    0.6280 N   0  0  0  0  0  0  0  0  0  0  0  0
    4.5784    0.7964    0.3260 N   0  0  0  0  0  0  0  0  0  0  0  0
    3.6859   -1.4549   -1.6460 N   0  0  0  0  0  0  0  0  0  0  0  0
    2.4128   -1.0220   -1.3286 C   0  0  0  0  0  0  0  0  0  0  0  0
    1.6946   -0.3059   -2.2078 N   0  0  0  0  0  0  0  0  0  0  0  0
    0.4577    0.1391   -1.9541 C   0  0  0  0  0  0  0  0  0  0  0  0
   -0.1202   -0.1363   -0.7518 C   0  0  0  0  0  0  0  0  0  0  0  0
   -1.4013    0.3063   -0.4482 C   0  0  0  0  0  0  0  0  0  0  0  0
   -1.9340    0.0031    0.7706 C   0  0  0  0  0  0  0  0  0  0  0  0
   -3.1766    0.3649    1.2165 O   0  0  0  0  0  0  0  0  0  0  0  0
   -4.1156    1.0929    0.5341 C   0  0  0  0  0  0  0  0  0  0  0  0
   -4.5959    2.2983    1.0065 C   0  0  0  0  0  0  0  0  0  0  0  0
   -5.5421    3.0187    0.3059 C   0  0  0  0  0  0  0  0  0  0  0  0
   -6.0591    2.5809   -0.8968 C   0  0  0  0  0  0  0  0  0  0  0  0
   -6.9894    3.2802   -1.5946 F   0  0  0  0  0  0  0  0  0  0  0  0
   -5.5742    1.3754   -1.3625 C   0  0  0  0  0  0  0  0  0  0  0  0
   -4.6283    0.6505   -0.6668 C   0  0  0  0  0  0  0  0  0  0  0  0
   -4.1452   -0.5405   -1.1208 F   0  0  0  0  0  0  0  0  0  0  0  0
   -1.1482   -0.7397    1.6411 C   0  0  0  0  0  0  0  0  0  0  0  0
   -1.5929   -1.0518    2.7909 O   0  0  0  0  0  0  0  0  0  0  0  0
    0.0801   -1.1625    1.3466 N   0  0  0  0  0  0  0  0  0  0  0  0
    0.8844   -1.9475    2.2931 C   0  0  0  0  0  0  0  0  0  0  0  0
    0.6172   -0.8778    0.1647 C   0  0  0  0  0  0  0  0  0  0  0  0
    1.8378   -1.2909   -0.1439 N   0  0  0  0  0  0  0  0  0  0  0  0
  1  2  1  0
  2  3  1  0
  3  4  1  0
  4  5  1  0
  5  6  1  0
  6  7  1  0
  7  8  2  0
  7  9  1  0
  9 10  1  0
 10 11  1  0
 11 12  2  0
 12 13  1  0
 13 14  1  0
 14 15  2  0
 17 16  1  1
 17 18  1  0
 18 19  1  0
 19 20  1  0
 20 21  2  0
 21 22  1  0
 22 23  2  0
 17 24  1  0
 24 25  1  0
 25 26  2  0
 26 27  1  0
 27 28  2  0
 28 29  1  0
 29 30  2  0
 30 31  1  0
 31 32  1  0
 32 33  2  0
 33 34  1  0
 34 35  2  0
 35 36  1  0
 35 37  1  0
 37 38  2  0
 38 39  1  0
 30 40  1  0
 40 41  2  0
 40 42  1  0
 42 43  1  0
 42 44  1  0
 44 45  2  0
 15 11  1  0
 23 19  1  0
 45 25  1  0
 44 28  1  0
 38 32  1  0
M  END

