
     RDKit          3D

 41 43  0  0  0  0  0  0  0  0999 V2000
   -4.4123    0.1814   -0.2820 C   0  0  0  0  0  0  0  0  0  0  0  0
   -3.1636    0.5895    0.4644 C   0  0  0  0  0  0  0  0  0  0  0  0
   -3.3206    0.1114    1.8973 C   0  0  0  0  0  0  0  0  0  0  0  0
   -1.9136   -0.0110   -0.1335 C   0  0  0  0  0  0  0  0  0  0  0  0
   -0.7465    0.4519    0.6725 C   0  0  0  0  0  0  0  0  0  0  0  0
    0.5464   -0.1067    0.1375 C   0  0  0  0  0  0  0  0  0  0  0  0
    0.5722   -0.8576   -0.8592 O   0  0  0  0  0  0  0  0  0  0  0  0
    1.7847    0.2068    0.7560 N   0  0  0  0  0  0  0  0  0  0  0  0
    3.0068   -0.3466    0.2164 C   0  0  0  0  0  0  0  0  0  0  0  0
    3.2235    0.0854   -1.2275 C   0  0  0  0  0  0  0  0  0  0  0  0
    4.4229   -0.5030   -1.6418 O   0  0  0  0  0  0  0  0  0  0  0  0
   -3.6163    1.2383   -1.2151 C   0  0  0  0  0  0  0  0  0  0  0  0
   -4.4695   -0.1521   -1.5348 C   0  0  2  0  0  0  0  0  0  0  0  0
   -5.9540    0.4038   -1.0723 C   0  0  0  0  0  0  0  0  0  0  0  0
   -5.9778    0.7964    0.2483 N   0  0  0  0  0  0  0  0  0  0  0  0
   -5.7072    2.0258    0.7158 N   0  0  0  0  0  0  0  0  0  0  0  0
   -5.8334    2.0221    2.0466 C   0  0  0  0  0  0  0  0  0  0  0  0
   -6.1864    0.7776    2.4119 N   0  0  0  0  0  0  0  0  0  0  0  0
   -6.2651    0.0640    1.3076 N   0  0  0  0  0  0  0  0  0  0  0  0
   -4.1526   -0.7735   -0.1123 N   0  0  0  0  0  0  0  0  0  0  0  0
   -2.7519   -0.9285    0.1064 C   0  0  0  0  0  0  0  0  0  0  0  0
   -2.3916   -1.4460    1.2812 N   0  0  0  0  0  0  0  0  0  0  0  0
   -1.1119   -1.6580    1.6460 C   0  0  0  0  0  0  0  0  0  0  0  0
   -0.1355   -1.3113    0.7337 C   0  0  0  0  0  0  0  0  0  0  0  0
    1.2119   -1.4936    1.0218 C   0  0  0  0  0  0  0  0  0  0  0  0
    2.1478   -1.1327    0.0805 C   0  0  0  0  0  0  0  0  0  0  0  0
    3.4833   -1.3292    0.4034 O   0  0  0  0  0  0  0  0  0  0  0  0
    4.3773   -0.2669    0.4459 C   0  0  0  0  0  0  0  0  0  0  0  0
    3.9885    1.0214    0.1730 C   0  0  0  0  0  0  0  0  0  0  0  0
    4.9181    2.0488    0.2285 C   0  0  0  0  0  0  0  0  0  0  0  0
    6.2312    1.7804    0.5568 C   0  0  0  0  0  0  0  0  0  0  0  0
    7.1867    2.7491    0.6265 F   0  0  0  0  0  0  0  0  0  0  0  0
    6.6191    0.4928    0.8294 C   0  0  0  0  0  0  0  0  0  0  0  0
    5.6964   -0.5520    0.7780 C   0  0  0  0  0  0  0  0  0  0  0  0
    6.0560   -1.8168    1.0411 F   0  0  0  0  0  0  0  0  0  0  0  0
    1.7739   -0.5982   -1.1327 C   0  0  0  0  0  0  0  0  0  0  0  0
    2.6434   -0.2670   -1.9976 O   0  0  0  0  0  0  0  0  0  0  0  0
    0.4549   -0.4406   -1.3661 N   0  0  0  0  0  0  0  0  0  0  0  0
    0.0567    0.1266   -2.6532 C   0  0  0  0  0  0  0  0  0  0  0  0
   -0.4908   -0.7798   -0.4745 C   0  0  0  0  0  0  0  0  0  0  0  0
   -1.8014   -0.6009   -0.7585 N   0  0  0  0  0  0  0  0  0  0  0  0
  1  2  1  0
  2  3  1  0
  2  4  1  0
  4  5  1  0
  5  6  1  0
  6  7  2  0
  6  8  1  0
  8  9  1  0
  9 10  1  0
 10 11  1  0
 13 12  1  1
 13 14  1  0
 14 15  1  0
 15 16  1  0
 16 17  2  0
 17 18  1  0
 18 19  2  0
 13 20  1  0
 20 21  1  0
 21 22  2  0
 22 23  1  0
 23 24  2  0
 24 25  1  0
 25 26  2  0
 26 27  1  0
 27 28  1  0
 28 29  2  0
 29 30  1  0
 30 31  2  0
 31 32  1  0
 31 33  1  0
 33 34  2  0
 34 35  1  0
 26 36  1  0
 36 37  2  0
 36 38  1  0
 38 39  1  0
 38 40  1  0
 40 41  2  0
 19 15  1  0
 41 21  1  0
 40 24  1  0
 34 28  1  0
M  END

