
     RDKit          3D

  6  5  0  0  0  0  0  0  0  0999 V2000
   -2.1459    0.1913   -0.3704 C   0  0  0  0  0  0  0  0  0  0  0  0
   -1.4081   -0.3112    0.8364 C   0  0  0  0  0  0  0  0  0  0  0  0
   -0.0685   -0.8011    0.4773 N   0  0  0  0  0  0  0  0  0  0  0  0
    0.8626    0.0778   -0.1205 C   0  0  0  0  0  0  0  0  0  0  0  0
    2.2059   -0.4223   -0.4781 C   0  0  0  0  0  0  0  0  0  0  0  0
    0.5540    1.2655   -0.3448 O   0  0  0  0  0  0  0  0  0  0  0  0
  1  2  1  0
  2  3  1  0
  3  4  1  0
  4  5  1  0
  4  6  2  0
M  END

