
     RDKit          3D

 40 42  0  0  0  0  0  0  0  0999 V2000
    3.6550    0.3309   -0.9256 C   0  0  0  0  0  0  0  0  0  0  0  0
    2.3272    0.3149   -0.1382 C   0  0  0  0  0  0  0  0  0  0  0  0
    1.9600   -1.1403   -0.0388 C   0  0  0  0  0  0  0  0  0  0  0  0
    1.3894    1.1594   -0.9337 C   0  0  0  0  0  0  0  0  0  0  0  0
    0.0751    1.3392   -0.4412 N   0  0  0  0  0  0  0  0  0  0  0  0
   -0.8779    0.3535   -0.2327 C   0  0  0  0  0  0  0  0  0  0  0  0
   -0.6451   -0.8504   -0.4823 O   0  0  0  0  0  0  0  0  0  0  0  0
   -2.2560    0.6415    0.3044 C   0  0  0  0  0  0  0  0  0  0  0  0
   -3.0811   -0.5980    0.4318 C   0  0  0  0  0  0  0  0  0  0  0  0
   -2.5465   -1.5506    1.2771 O   0  0  0  0  0  0  0  0  0  0  0  0
    3.8902   -0.0791    0.3197 C   0  0  0  0  0  0  0  0  0  0  0  0
    4.1522    0.1699   -1.3126 C   0  0  2  0  0  0  0  0  0  0  0  0
    5.4710    1.1693   -1.0499 C   0  0  0  0  0  0  0  0  0  0  0  0
    6.4172    0.3854   -0.3445 N   0  0  0  0  0  0  0  0  0  0  0  0
    7.4006   -0.3982   -0.7447 N   0  0  0  0  0  0  0  0  0  0  0  0
    8.0091   -0.9192    0.3284 C   0  0  0  0  0  0  0  0  0  0  0  0
    7.3856   -0.4453    1.4200 N   0  0  0  0  0  0  0  0  0  0  0  0
    6.4312    0.3377    0.9860 N   0  0  0  0  0  0  0  0  0  0  0  0
    3.1651    1.4082   -1.3570 N   0  0  0  0  0  0  0  0  0  0  0  0
    1.8352    1.1345   -0.9912 C   0  0  0  0  0  0  0  0  0  0  0  0
    0.9084    2.1085   -0.9915 N   0  0  0  0  0  0  0  0  0  0  0  0
   -0.3580    1.8249   -0.6381 C   0  0  0  0  0  0  0  0  0  0  0  0
   -0.7513    0.5593   -0.2703 C   0  0  0  0  0  0  0  0  0  0  0  0
   -2.0311    0.2214    0.0980 C   0  0  0  0  0  0  0  0  0  0  0  0
   -2.3215   -1.0840    0.4508 C   0  0  0  0  0  0  0  0  0  0  0  0
   -3.5871   -1.4497    0.8220 O   0  0  0  0  0  0  0  0  0  0  0  0
   -4.6474   -0.5442    0.8674 C   0  0  0  0  0  0  0  0  0  0  0  0
   -5.7832   -0.7046    0.1047 C   0  0  0  0  0  0  0  0  0  0  0  0
   -6.8269    0.1967    0.1566 C   0  0  0  0  0  0  0  0  0  0  0  0
   -6.7922    1.3080    0.9740 C   0  0  0  0  0  0  0  0  0  0  0  0
   -7.8390    2.1670    0.9937 F   0  0  0  0  0  0  0  0  0  0  0  0
   -5.6572    1.4711    1.7381 C   0  0  0  0  0  0  0  0  0  0  0  0
   -4.6091    0.5643    1.6848 C   0  0  0  0  0  0  0  0  0  0  0  0
   -3.4927    0.7489    2.4537 F   0  0  0  0  0  0  0  0  0  0  0  0
   -1.3405   -2.0537    0.4377 C   0  0  0  0  0  0  0  0  0  0  0  0
   -1.6127   -3.2283    0.7576 O   0  0  0  0  0  0  0  0  0  0  0  0
   -0.0897   -1.6847    0.0692 N   0  0  0  0  0  0  0  0  0  0  0  0
    0.9896   -2.6586    0.0344 C   0  0  0  0  0  0  0  0  0  0  0  0
    0.2210   -0.4206   -0.2792 C   0  0  0  0  0  0  0  0  0  0  0  0
    1.4631   -0.1049   -0.6340 N   0  0  0  0  0  0  0  0  0  0  0  0
  1  2  1  0
  2  3  1  0
  2  4  1  0
  4  5  1  0
  5  6  1  0
  6  7  2  0
  6  8  1  0
  8  9  1  0
  9 10  1  0
 12 11  1  1
 12 13  1  0
 13 14  1  0
 14 15  1  0
 15 16  2  0
 16 17  1  0
 17 18  2  0
 12 19  1  0
 19 20  1  0
 20 21  2  0
 21 22  1  0
 22 23  2  0
 23 24  1  0
 24 25  2  0
 25 26  1  0
 26 27  1  0
 27 28  2  0
 28 29  1  0
 29 30  2  0
 30 31  1  0
 30 32  1  0
 32 33  2  0
 33 34  1  0
 25 35  1  0
 35 36  2  0
 35 37  1  0
 37 38  1  0
 37 39  1  0
 39 40  2  0
 18 14  1  0
 40 20  1  0
 39 23  1  0
 33 27  1  0
M  END

