
     RDKit          3D

 42 44  0  0  0  0  0  0  0  0999 V2000
    4.4500    0.1939    0.8054 C   0  0  0  0  0  0  0  0  0  0  0  0
    4.4242   -1.4011    0.3473 C   0  0  2  0  0  0  0  0  0  0  0  0
    5.7249   -1.1991   -0.6787 C   0  0  0  0  0  0  0  0  0  0  0  0
    6.7777   -0.7509    0.2176 N   0  0  0  0  0  0  0  0  0  0  0  0
    6.9878    0.5451    0.4804 N   0  0  0  0  0  0  0  0  0  0  0  0
    8.0117    0.6416    1.3285 C   0  0  0  0  0  0  0  0  0  0  0  0
    8.4513   -0.5967    1.6035 N   0  0  0  0  0  0  0  0  0  0  0  0
    7.6650   -1.4202    0.9001 N   0  0  0  0  0  0  0  0  0  0  0  0
    3.3658   -1.1437   -0.7966 N   0  0  0  0  0  0  0  0  0  0  0  0
    2.1406   -0.6170   -0.2511 C   0  0  0  0  0  0  0  0  0  0  0  0
    1.9617   -0.3895    1.0600 N   0  0  0  0  0  0  0  0  0  0  0  0
    0.8652    0.0914    1.6267 C   0  0  0  0  0  0  0  0  0  0  0  0
   -0.1923    0.3818    0.7549 C   0  0  0  0  0  0  0  0  0  0  0  0
   -1.3683    0.8842    1.2537 C   0  0  0  0  0  0  0  0  0  0  0  0
   -2.3806    1.1555    0.3643 C   0  0  0  0  0  0  0  0  0  0  0  0
   -3.5722    1.6636    0.8617 O   0  0  0  0  0  0  0  0  0  0  0  0
   -4.7284    0.9502    0.6580 C   0  0  0  0  0  0  0  0  0  0  0  0
   -5.7535    1.5311   -0.0381 C   0  0  0  0  0  0  0  0  0  0  0  0
   -6.9163    0.8211   -0.2461 C   0  0  0  0  0  0  0  0  0  0  0  0
   -7.0005   -0.4633    0.2626 C   0  0  0  0  0  0  0  0  0  0  0  0
   -8.1617   -1.1642    0.0515 F   0  0  0  0  0  0  0  0  0  0  0  0
   -5.9685   -1.0503    0.9644 C   0  0  0  0  0  0  0  0  0  0  0  0
   -4.8068   -0.3281    1.1667 C   0  0  0  0  0  0  0  0  0  0  0  0
   -3.7778   -0.8955    1.8588 F   0  0  0  0  0  0  0  0  0  0  0  0
   -2.1970    0.9228   -0.9746 C   0  0  0  0  0  0  0  0  0  0  0  0
   -3.1690    1.1954   -1.7293 O   0  0  0  0  0  0  0  0  0  0  0  0
   -1.0525    0.4325   -1.4706 N   0  0  0  0  0  0  0  0  0  0  0  0
   -0.8666    0.1903   -2.8803 C   0  0  0  0  0  0  0  0  0  0  0  0
   -0.0366    0.1579   -0.5976 C   0  0  0  0  0  0  0  0  0  0  0  0
    1.1227   -0.3387   -1.1000 N   0  0  0  0  0  0  0  0  0  0  0  0
    4.4494    1.1083   -0.9892 O   0  0  0  0  0  1  0  0  0  0  0  0
    3.3266    0.6483   -0.3166 C   0  0  0  0  0  0  0  0  0  0  0  0
    2.5757    1.4581    0.2854 O   0  0  0  0  0  0  0  0  0  0  0  0
    3.0747   -0.8189   -0.3515 C   0  0  0  0  0  0  0  0  0  0  0  0
    1.8309   -1.0917    0.4259 C   0  0  0  0  0  0  0  0  0  0  0  0
    0.6535   -0.3501   -0.1904 C   0  0  0  0  0  0  0  0  0  0  0  0
   -0.5051   -0.6787    0.6346 N   0  0  0  0  0  0  0  0  0  0  0  0
   -1.8021   -0.1748    0.3790 C   0  0  0  0  0  0  0  0  0  0  0  0
   -1.9547    0.5797   -0.5915 O   0  0  0  0  0  0  0  0  0  0  0  0
   -2.9811   -0.5246    1.2393 C   0  0  0  0  0  0  0  0  0  0  0  0
   -4.2202    0.1430    0.7425 C   0  0  0  0  0  0  0  0  0  0  0  0
   -4.4476   -0.2986   -0.5717 O   0  0  0  0  0  0  0  0  0  0  0  0
  2  1  1  1
  2  3  1  0
  3  4  1  0
  4  5  1  0
  5  6  2  0
  6  7  1  0
  7  8  2  0
  2  9  1  0
  9 10  1  0
 10 11  2  0
 11 12  1  0
 12 13  2  0
 13 14  1  0
 14 15  2  0
 15 16  1  0
 16 17  1  0
 17 18  2  0
 18 19  1  0
 19 20  2  0
 20 21  1  0
 20 22  1  0
 22 23  2  0
 23 24  1  0
 15 25  1  0
 25 26  2  0
 25 27  1  0
 27 28  1  0
 27 29  1  0
 29 30  2  0
 31 32  1  0
 32 33  2  0
 32 34  1  0
 34 35  1  0
 35 36  1  0
 36 37  1  0
 37 38  1  0
 38 39  2  0
 38 40  1  0
 40 41  1  0
 41 42  1  0
  8  4  1  0
 30 10  1  0
 29 13  1  0
 23 17  1  0
M  RAD  1  31   2
M  END

