
     RDKit          3D

 45 48  0  0  0  0  0  0  0  0999 V2000
    5.2126    0.0247   -1.2012 C   0  0  0  0  0  0  0  0  0  0  0  0
    5.1786    1.4343   -0.3257 C   0  0  2  0  0  0  0  0  0  0  0  0
    4.6055    0.7031    1.0421 C   0  0  0  0  0  0  0  0  0  0  0  0
    5.6499   -0.2627    1.3348 N   0  0  0  0  0  0  0  0  0  0  0  0
    5.6680   -1.4928    0.8735 N   0  0  0  0  0  0  0  0  0  0  0  0
    6.7601   -2.1350    1.3209 C   0  0  0  0  0  0  0  0  0  0  0  0
    7.4322   -1.2529    2.0873 N   0  0  0  0  0  0  0  0  0  0  0  0
    6.7370   -0.1428    2.0720 N   0  0  0  0  0  0  0  0  0  0  0  0
    3.7687    1.9047   -0.8174 N   0  0  0  0  0  0  0  0  0  0  0  0
    2.6586    1.0996   -0.6259 C   0  0  0  0  0  0  0  0  0  0  0  0
    2.5862   -0.0927   -0.0526 N   0  0  0  0  0  0  0  0  0  0  0  0
    1.4492   -0.8034    0.0875 C   0  0  0  0  0  0  0  0  0  0  0  0
    0.2612   -0.2902   -0.3843 C   0  0  0  0  0  0  0  0  0  0  0  0
   -0.9606   -0.9730   -0.2737 C   0  0  0  0  0  0  0  0  0  0  0  0
   -2.1135   -0.4149   -0.7610 C   0  0  0  0  0  0  0  0  0  0  0  0
   -3.3155   -1.0476   -0.6714 O   0  0  0  0  0  0  0  0  0  0  0  0
   -4.4359   -0.5896   -0.0279 C   0  0  0  0  0  0  0  0  0  0  0  0
   -4.4151    0.6191    0.6107 C   0  0  0  0  0  0  0  0  0  0  0  0
   -5.5250    1.1206    1.2738 C   0  0  0  0  0  0  0  0  0  0  0  0
   -6.6632    0.3752    1.2806 C   0  0  0  0  0  0  0  0  0  0  0  0
   -7.7756    0.8273    1.9181 F   0  0  0  0  0  0  0  0  0  0  0  0
   -6.6977   -0.8300    0.6487 C   0  0  0  0  0  0  0  0  0  0  0  0
   -5.5799   -1.3376   -0.0204 C   0  0  0  0  0  0  0  0  0  0  0  0
   -5.6292   -2.5237   -0.6368 F   0  0  0  0  0  0  0  0  0  0  0  0
   -2.0164    0.8192   -1.3505 C   0  0  0  0  0  0  0  0  0  0  0  0
   -3.0696    1.3422   -1.8022 O   0  0  0  0  0  0  0  0  0  0  0  0
   -0.8246    1.4722   -1.4520 N   0  0  0  0  0  0  0  0  0  0  0  0
   -0.7696    2.7692   -2.0801 C   0  0  0  0  0  0  0  0  0  0  0  0
    0.3194    0.9501   -0.9840 C   0  0  0  0  0  0  0  0  0  0  0  0
    1.5041    1.5949   -1.0828 N   0  0  0  0  0  0  0  0  0  0  0  0
    4.0287    1.6507   -0.7683 O   0  0  0  0  0  1  0  0  0  0  0  0
    3.8060    0.5038    0.0200 C   0  0  0  0  0  0  0  0  0  0  0  0
    3.9514   -0.6088   -0.5065 O   0  0  0  0  0  0  0  0  0  0  0  0
    3.4104    0.6061    1.4340 C   0  0  0  0  0  0  0  0  0  0  0  0
    1.9531    0.7203    1.5890 C   0  0  0  0  0  0  0  0  0  0  0  0
    1.2037   -0.4251    1.0792 C   0  0  0  0  0  0  0  0  0  0  0  0
    1.7994   -1.4143    0.6183 O   0  0  0  0  0  0  0  0  0  0  0  0
   -0.2243   -0.4801    1.0777 N   0  0  0  0  0  0  0  0  0  0  0  0
   -0.8794   -1.6457    0.5572 C   0  0  0  0  0  0  0  0  0  0  0  0
   -2.3696   -1.5451    0.6276 C   0  0  0  0  0  0  0  0  0  0  0  0
   -2.9090   -0.3878   -0.1459 C   0  0  0  0  0  0  0  0  0  0  0  0
   -3.3027   -0.3496   -1.4695 C   0  0  0  0  0  0  0  0  0  0  0  0
   -3.7342    0.8805   -1.8016 N   0  0  0  0  0  0  0  0  0  0  0  0
   -3.6160    1.6306   -0.6875 C   0  0  0  0  0  0  0  0  0  0  0  0
   -3.1176    0.8646    0.3125 N   0  0  0  0  0  0  0  0  0  0  0  0
  2  1  1  6
  2  3  1  0
  3  4  1  0
  4  5  1  0
  5  6  2  0
  6  7  1  0
  7  8  2  0
  2  9  1  0
  9 10  1  0
 10 11  2  0
 11 12  1  0
 12 13  2  0
 13 14  1  0
 14 15  2  0
 15 16  1  0
 16 17  1  0
 17 18  2  0
 18 19  1  0
 19 20  2  0
 20 21  1  0
 20 22  1  0
 22 23  2  0
 23 24  1  0
 15 25  1  0
 25 26  2  0
 25 27  1  0
 27 28  1  0
 27 29  1  0
 29 30  2  0
 31 32  1  0
 32 33  2  0
 32 34  1  0
 34 35  1  0
 35 36  1  0
 36 37  2  0
 36 38  1  0
 38 39  1  0
 39 40  1  0
 40 41  1  0
 41 42  2  0
 42 43  1  0
 43 44  1  0
 44 45  2  0
  8  4  1  0
 30 10  1  0
 45 41  1  0
 29 13  1  0
 23 17  1  0
M  RAD  1  31   2
M  END

