
     RDKit          3D

 17 17  0  0  0  0  0  0  0  0999 V2000
    4.2707   -1.6039    0.2203 O   0  0  0  0  0  1  0  0  0  0  0  0
    3.7815   -0.4799    0.8572 C   0  0  0  0  0  0  0  0  0  0  0  0
    3.2325   -0.5890    1.9732 O   0  0  0  0  0  0  0  0  0  0  0  0
    3.9004    0.8410    0.2358 C   0  0  0  0  0  0  0  0  0  0  0  0
    3.3001    1.8833    1.1154 C   0  0  0  0  0  0  0  0  0  0  0  0
    1.8346    1.6534    1.3930 C   0  0  0  0  0  0  0  0  0  0  0  0
    1.1553    1.6686    0.1111 N   0  0  0  0  0  0  0  0  0  0  0  0
   -0.2758    1.4774   -0.0033 C   0  0  0  0  0  0  0  0  0  0  0  0
   -0.8419    1.3028    1.0988 O   0  0  0  0  0  0  0  0  0  0  0  0
   -0.9450    1.4965   -1.3156 C   0  0  0  0  0  0  0  0  0  0  0  0
   -2.3970    1.2068   -1.2525 C   0  0  0  0  0  0  0  0  0  0  0  0
   -2.6261   -0.1520   -0.7102 C   0  0  0  0  0  0  0  0  0  0  0  0
   -2.8334   -0.4248    0.6152 C   0  0  0  0  0  0  0  0  0  0  0  0
   -3.0363   -1.7198    1.0152 C   0  0  0  0  0  0  0  0  0  0  0  0
   -3.0448   -2.7849    0.1498 C   0  0  0  0  0  0  0  0  0  0  0  0
   -2.8395   -2.5341   -1.1801 C   0  0  0  0  0  0  0  0  0  0  0  0
   -2.6354   -1.2414   -1.5908 C   0  0  0  0  0  0  0  0  0  0  0  0
  1  2  1  0
  2  3  2  0
  2  4  1  0
  4  5  1  0
  5  6  1  0
  6  7  1  0
  7  8  1  0
  8  9  2  0
  8 10  1  0
 10 11  1  0
 11 12  1  0
 12 13  2  0
 13 14  1  0
 14 15  2  0
 15 16  1  0
 16 17  2  0
 17 12  1  0
M  RAD  1   1   2
M  END

