
     RDKit          3D

 14 14  0  0  0  0  0  0  0  0999 V2000
    4.8708   -1.3710   -1.1961 N   0  0  0  0  0  4  0  0  0  0  0  0
    4.3257   -0.0659   -0.8365 C   0  0  0  0  0  0  0  0  0  0  0  0
    4.0864   -0.0955    0.6725 C   0  0  0  0  0  0  0  0  0  0  0  0
    3.5141    1.2518    1.1141 C   0  0  0  0  0  0  0  0  0  0  0  0
    2.2242    1.5650    0.4419 C   0  0  0  0  0  0  0  0  0  0  0  0
    1.1758    0.5182    0.7231 C   0  0  0  0  0  0  0  0  0  0  0  0
   -0.0630    0.7949    0.0514 N   0  0  0  0  0  0  0  0  0  0  0  0
   -1.1348   -0.1168    0.2024 C   0  0  0  0  0  0  0  0  0  0  0  0
   -1.0643   -1.1191    0.8836 O   0  0  0  0  0  0  0  0  0  0  0  0
   -2.4786    0.2444   -0.5965 C   0  0  2  0  0  0  0  0  0  0  0  0
   -3.3532    0.4641    0.8118 C   0  0  0  0  0  0  0  0  0  0  0  0
   -4.6896    0.1548    0.1442 C   0  0  0  0  0  0  0  0  0  0  0  0
   -4.4058   -0.9845   -0.8190 C   0  0  0  0  0  0  0  0  0  0  0  0
   -3.0078   -1.2403   -0.6994 N   0  0  0  0  0  0  0  0  0  0  0  0
  1  2  1  0
  2  3  1  0
  3  4  1  0
  4  5  1  0
  5  6  1  0
  6  7  1  0
  7  8  1  0
  8  9  2  0
 10  8  1  1
 10 11  1  0
 11 12  1  0
 12 13  1  0
 13 14  1  0
 14 10  1  0
M  CHG  1   1   1
M  END

