
     RDKit          3D

 14 13  0  0  0  0  0  0  0  0999 V2000
   -4.9523   -0.9591    0.8559 N   0  0  0  0  0  0  0  0  0  0  0  0
   -3.8383   -0.4778    0.1000 C   0  0  0  0  0  0  0  0  0  0  0  0
   -3.5433    0.7230    0.1858 O   0  0  0  0  0  0  0  0  0  0  0  0
   -3.1287   -1.4805   -0.7306 C   0  0  0  0  0  0  0  0  0  0  0  0
   -1.9613   -0.8883   -1.4842 C   0  0  0  0  0  0  0  0  0  0  0  0
   -0.9756   -0.3216   -0.5351 C   0  0  0  0  0  0  0  0  0  0  0  0
   -1.2223   -0.4078    0.6916 O   0  0  0  0  0  0  0  0  0  0  0  0
    0.2298    0.3125   -0.9299 N   0  0  0  0  0  0  0  0  0  0  0  0
    1.1491    0.8451    0.0605 C   0  0  0  0  0  0  0  0  0  0  0  0
    2.3543    1.4717   -0.5302 C   0  0  0  0  0  0  0  0  0  0  0  0
    3.2272    1.9845    0.5960 C   0  0  0  0  0  0  0  0  0  0  0  0
    3.5887    0.7617    1.4494 C   0  0  0  0  0  0  0  0  0  0  0  0
    4.3277   -0.1775    0.5031 C   0  0  0  0  0  0  0  0  0  0  0  0
    4.7449   -1.3859    1.1383 N   0  0  0  0  0  4  0  0  0  0  0  0
  1  2  1  0
  2  3  2  0
  2  4  1  0
  4  5  1  0
  5  6  1  0
  6  7  2  0
  6  8  1  0
  8  9  1  0
  9 10  1  0
 10 11  1  0
 11 12  1  0
 12 13  1  0
 13 14  1  0
M  CHG  1  14   1
M  END

