
     RDKit          3D

 12 11  0  0  0  0  0  0  0  0999 V2000
   -2.7411    1.3746    0.6645 C   0  0  0  0  0  0  0  0  0  0  0  0
   -3.5135    0.0068    0.0997 C   0  0  1  0  0  0  0  0  0  0  0  0
   -2.9551    0.1749   -1.3183 O   0  0  0  0  0  0  0  0  0  0  0  0
   -2.3399   -1.0097    0.6785 C   0  0  0  0  0  0  0  0  0  0  0  0
   -1.0804   -0.6831    0.0891 C   0  0  0  0  0  0  0  0  0  0  0  0
   -0.9173    0.2601   -0.7204 O   0  0  0  0  0  0  0  0  0  0  0  0
    0.0861   -1.4378    0.4037 N   0  0  0  0  0  0  0  0  0  0  0  0
    1.3639   -1.1060   -0.1944 C   0  0  0  0  0  0  0  0  0  0  0  0
    1.7215    0.3311    0.2019 C   0  0  0  0  0  0  0  0  0  0  0  0
    3.0333    0.6157   -0.4351 C   0  0  0  0  0  0  0  0  0  0  0  0
    4.1785    0.5899    0.3411 O   0  0  0  0  0  1  0  0  0  0  0  0
    3.1641    0.8835   -1.6611 O   0  0  0  0  0  0  0  0  0  0  0  0
  2  1  1  1
  2  3  1  0
  2  4  1  0
  4  5  1  0
  5  6  2  0
  5  7  1  0
  7  8  1  0
  8  9  1  0
  9 10  1  0
 10 11  1  0
 10 12  2  0
M  RAD  1  11   2
M  END

