
     RDKit          3D

 45 49  0  0  0  0  0  0  0  0999 V2000
    6.0578   -2.8056   -0.8281 C   0  0  0  0  0  0  0  0  0  0  0  0
    4.7709   -1.7065   -0.6932 C   0  0  2  0  0  0  0  0  0  0  0  0
    5.4033   -1.1468    0.7339 C   0  0  0  0  0  0  0  0  0  0  0  0
    4.4676   -0.1178    1.1385 N   0  0  0  0  0  0  0  0  0  0  0  0
    4.5224    1.1613    0.7833 N   0  0  0  0  0  0  0  0  0  0  0  0
    3.5292    1.8550    1.3496 C   0  0  0  0  0  0  0  0  0  0  0  0
    2.8492    0.9541    2.0757 N   0  0  0  0  0  0  0  0  0  0  0  0
    3.4201   -0.2252    1.9422 N   0  0  0  0  0  0  0  0  0  0  0  0
    3.8600   -2.7858    0.0117 N   0  0  0  0  0  0  0  0  0  0  0  0
    2.4839   -2.4419    0.0108 C   0  0  0  0  0  0  0  0  0  0  0  0
    1.6176   -3.3033    0.6168 N   0  0  0  0  0  0  0  0  0  0  0  0
    0.3010   -3.0288    0.6153 C   0  0  0  0  0  0  0  0  0  0  0  0
   -0.1781   -1.8888    0.0089 C   0  0  0  0  0  0  0  0  0  0  0  0
   -1.5215   -1.5934   -0.0016 C   0  0  0  0  0  0  0  0  0  0  0  0
   -1.9836   -0.4394   -0.6182 C   0  0  0  0  0  0  0  0  0  0  0  0
   -3.3352   -0.2011   -0.5944 O   0  0  0  0  0  0  0  0  0  0  0  0
   -3.8444    0.9442    0.0005 C   0  0  0  0  0  0  0  0  0  0  0  0
   -3.0533    1.9041    0.5968 C   0  0  0  0  0  0  0  0  0  0  0  0
   -3.5879    3.0372    1.1828 C   0  0  0  0  0  0  0  0  0  0  0  0
   -4.9523    3.2470    1.1897 C   0  0  0  0  0  0  0  0  0  0  0  0
   -5.5218    4.3462    1.7541 F   0  0  0  0  0  0  0  0  0  0  0  0
   -5.7506    2.2923    0.5957 C   0  0  0  0  0  0  0  0  0  0  0  0
   -5.2152    1.1561    0.0080 C   0  0  0  0  0  0  0  0  0  0  0  0
   -5.9928    0.2190   -0.5745 F   0  0  0  0  0  0  0  0  0  0  0  0
   -1.0528    0.3871   -1.2117 C   0  0  0  0  0  0  0  0  0  0  0  0
   -1.4830    1.4430   -1.7749 O   0  0  0  0  0  0  0  0  0  0  0  0
    0.2651    0.1146   -1.2114 N   0  0  0  0  0  0  0  0  0  0  0  0
    1.2384    0.9768   -1.8308 C   0  0  0  0  0  0  0  0  0  0  0  0
    0.6902   -1.0172   -0.6033 C   0  0  0  0  0  0  0  0  0  0  0  0
    1.9955   -1.3364   -0.5744 N   0  0  0  0  0  0  0  0  0  0  0  0
    0.3631    0.6260    1.6382 O   0  0  0  0  0  0  0  0  0  0  0  0
    0.9390   -0.2639    0.9608 C   0  0  0  0  0  0  0  0  0  0  0  0
    0.3754   -1.5846    0.6313 C   0  0  0  0  0  0  0  0  0  0  0  0
   -1.0461   -1.6909    1.0632 C   0  0  0  0  0  0  0  0  0  0  0  0
   -1.8847   -0.6862    0.3660 C   0  0  0  0  0  0  0  0  0  0  0  0
   -2.4071   -1.0948   -0.8665 C   0  0  0  0  0  0  0  0  0  0  0  0
   -3.2067   -0.2935   -1.6254 C   0  0  0  0  0  0  0  0  0  0  0  0
   -3.5175    0.9700   -1.1679 C   0  0  0  0  0  0  0  0  0  0  0  0
   -2.9979    1.3746    0.0564 C   0  0  0  0  0  0  0  0  0  0  0  0
   -2.1942    0.5554    0.8084 C   0  0  0  0  0  0  0  0  0  0  0  0
    2.2364    0.0615    0.4920 N   0  0  0  0  0  0  0  0  0  0  0  0
    3.0616   -0.8235   -0.3015 C   0  0  0  0  0  0  0  0  0  0  0  0
    3.6051    0.1215   -1.3538 C   0  0  0  0  0  0  0  0  0  0  0  0
    3.6853    1.4609   -0.6298 C   0  0  0  0  0  0  0  0  0  0  0  0
    2.9882    1.2676    0.6820 C   0  0  0  0  0  0  0  0  0  0  0  0
  2  1  1  6
  2  3  1  0
  3  4  1  0
  4  5  1  0
  5  6  2  0
  6  7  1  0
  7  8  2  0
  2  9  1  0
  9 10  1  0
 10 11  2  0
 11 12  1  0
 12 13  2  0
 13 14  1  0
 14 15  2  0
 15 16  1  0
 16 17  1  0
 17 18  2  0
 18 19  1  0
 19 20  2  0
 20 21  1  0
 20 22  1  0
 22 23  2  0
 23 24  1  0
 15 25  1  0
 25 26  2  0
 25 27  1  0
 27 28  1  0
 27 29  1  0
 29 30  2  0
 31 32  2  0
 32 33  1  0
 33 34  1  0
 34 35  1  0
 35 36  2  0
 36 37  1  0
 37 38  2  0
 38 39  1  0
 39 40  2  0
 32 41  1  0
 41 42  1  0
 42 43  1  0
 43 44  1  0
 44 45  1  0
  8  4  1  0
 30 10  1  0
 40 35  1  0
 45 41  1  0
 29 13  1  0
 23 17  1  0
M  END

