
     RDKit          3D

 49 53  0  0  0  0  0  0  0  0999 V2000
    4.2373    0.5805    1.0562 C   0  0  0  0  0  0  0  0  0  0  0  0
    4.7283   -0.9962    0.9037 C   0  0  2  0  0  0  0  0  0  0  0  0
    5.9194   -0.5821   -0.2046 C   0  0  0  0  0  0  0  0  0  0  0  0
    6.7252    0.3245    0.5697 N   0  0  0  0  0  0  0  0  0  0  0  0
    7.7500    0.0187    1.3218 N   0  0  0  0  0  0  0  0  0  0  0  0
    8.2170    1.1681    1.8701 C   0  0  0  0  0  0  0  0  0  0  0  0
    7.4498    2.1789    1.4318 N   0  0  0  0  0  0  0  0  0  0  0  0
    6.5403    1.6239    0.6325 N   0  0  0  0  0  0  0  0  0  0  0  0
    3.6779   -1.3073   -0.2277 N   0  0  0  0  0  0  0  0  0  0  0  0
    2.3529   -1.1119    0.2322 C   0  0  0  0  0  0  0  0  0  0  0  0
    2.0820   -0.7128    1.4794 N   0  0  0  0  0  0  0  0  0  0  0  0
    0.8193   -0.5330    1.8973 C   0  0  0  0  0  0  0  0  0  0  0  0
   -0.2682   -0.7528    1.0542 C   0  0  0  0  0  0  0  0  0  0  0  0
   -1.5629   -0.5641    1.4965 C   0  0  0  0  0  0  0  0  0  0  0  0
   -2.5792   -0.8013    0.6065 C   0  0  0  0  0  0  0  0  0  0  0  0
   -3.8955   -0.6197    1.0234 O   0  0  0  0  0  0  0  0  0  0  0  0
   -4.6478    0.3216    0.3270 C   0  0  0  0  0  0  0  0  0  0  0  0
   -4.1455    1.0553   -0.7284 C   0  0  0  0  0  0  0  0  0  0  0  0
   -4.9563    1.9707   -1.3685 C   0  0  0  0  0  0  0  0  0  0  0  0
   -6.2515    2.1763   -0.9882 C   0  0  0  0  0  0  0  0  0  0  0  0
   -7.0667    3.0776   -1.6104 F   0  0  0  0  0  0  0  0  0  0  0  0
   -6.7586    1.4522    0.0587 C   0  0  0  0  0  0  0  0  0  0  0  0
   -5.9607    0.5303    0.7121 C   0  0  0  0  0  0  0  0  0  0  0  0
   -6.5199   -0.1630    1.7491 F   0  0  0  0  0  0  0  0  0  0  0  0
   -2.2651   -1.2100   -0.6658 C   0  0  0  0  0  0  0  0  0  0  0  0
   -3.1901   -1.4274   -1.4805 O   0  0  0  0  0  0  0  0  0  0  0  0
   -0.9875   -1.3878   -1.0753 N   0  0  0  0  0  0  0  0  0  0  0  0
   -0.7534   -1.8223   -2.4407 C   0  0  0  0  0  0  0  0  0  0  0  0
    0.0203   -1.1617   -0.2221 C   0  0  0  0  0  0  0  0  0  0  0  0
    1.2895   -1.3255   -0.5879 N   0  0  0  0  0  0  0  0  0  0  0  0
   -6.4410   -2.0405   -0.7216 N   0  0  0  0  0  0  0  0  0  0  0  0
   -5.3669   -1.3187   -0.1076 C   0  0  0  0  0  0  0  0  0  0  0  0
   -5.3523   -1.0506    1.1193 O   0  0  0  0  0  0  0  0  0  0  0  0
   -4.2314   -0.8669   -0.9280 C   0  0  0  0  0  0  0  0  0  0  0  0
   -3.2153   -0.1403   -0.1313 C   0  0  0  0  0  0  0  0  0  0  0  0
   -2.0676    0.3186   -0.9497 C   0  0  0  0  0  0  0  0  0  0  0  0
   -2.1094    0.0348   -2.1742 O   0  0  0  0  0  0  0  0  0  0  0  0
   -0.9764    1.0422   -0.3790 N   0  0  0  0  0  0  0  0  0  0  0  0
    0.0689    1.4199   -1.3105 C   0  0  0  0  0  0  0  0  0  0  0  0
    1.1992    2.1725   -0.7070 C   0  0  0  0  0  0  0  0  0  0  0  0
    1.9173    1.4385    0.3606 C   0  0  0  0  0  0  0  0  0  0  0  0
    1.7679    1.7156    1.6993 C   0  0  0  0  0  0  0  0  0  0  0  0
    2.5770    0.8474    2.3321 N   0  0  0  0  0  0  0  0  0  0  0  0
    3.2131    0.0536    1.4443 C   0  0  0  0  0  0  0  0  0  0  0  0
    4.1319   -0.9784    1.5869 C   0  0  0  0  0  0  0  0  0  0  0  0
    4.6002   -1.6008    0.4571 C   0  0  0  0  0  0  0  0  0  0  0  0
    4.1967   -1.2441   -0.8114 C   0  0  0  0  0  0  0  0  0  0  0  0
    3.2710   -0.2047   -0.9574 C   0  0  0  0  0  0  0  0  0  0  0  0
    2.8171    0.4017    0.1783 C   0  0  0  0  0  0  0  0  0  0  0  0
  2  1  1  1
  2  3  1  0
  3  4  1  0
  4  5  1  0
  5  6  2  0
  6  7  1  0
  7  8  2  0
  2  9  1  0
  9 10  1  0
 10 11  2  0
 11 12  1  0
 12 13  2  0
 13 14  1  0
 14 15  2  0
 15 16  1  0
 16 17  1  0
 17 18  2  0
 18 19  1  0
 19 20  2  0
 20 21  1  0
 20 22  1  0
 22 23  2  0
 23 24  1  0
 15 25  1  0
 25 26  2  0
 25 27  1  0
 27 28  1  0
 27 29  1  0
 29 30  2  0
 31 32  1  0
 32 33  2  0
 32 34  1  0
 34 35  1  0
 35 36  1  0
 36 37  2  0
 36 38  1  0
 38 39  1  0
 39 40  1  0
 40 41  1  0
 41 42  2  0
 42 43  1  0
 43 44  1  0
 44 45  2  0
 45 46  1  0
 46 47  2  0
 47 48  1  0
 48 49  2  0
  8  4  1  0
 30 10  1  0
 49 41  1  0
 29 13  1  0
 49 44  1  0
 23 17  1  0
M  END

