
     RDKit          3D

 14 13  0  0  0  0  0  0  0  0999 V2000
   -4.1115    1.8942   -0.2768 N   0  0  0  0  0  0  0  0  0  0  0  0
   -3.6604    0.5567   -0.1635 C   0  0  0  0  0  0  0  0  0  0  0  0
   -3.5196   -0.1133   -1.2065 O   0  0  0  0  0  0  0  0  0  0  0  0
   -3.3783    0.0189    1.1816 C   0  0  0  0  0  0  0  0  0  0  0  0
   -2.9186   -1.4079    1.0262 C   0  0  0  0  0  0  0  0  0  0  0  0
   -1.6854   -1.4665    0.1907 C   0  0  0  0  0  0  0  0  0  0  0  0
   -0.5874   -0.6970    0.7991 N   0  0  0  0  0  0  0  0  0  0  0  0
    0.6825   -0.6180    0.1681 C   0  0  0  0  0  0  0  0  0  0  0  0
    0.7890   -1.2504   -0.9367 O   0  0  0  0  0  0  0  0  0  0  0  0
    1.8284    0.1427    0.7334 C   0  0  0  0  0  0  0  0  0  0  0  0
    3.0006   -0.0019   -0.2074 C   0  0  0  0  0  0  0  0  0  0  0  0
    4.1421    0.7527    0.3506 C   0  0  0  0  0  0  0  0  0  0  0  0
    5.4135    0.8301   -0.2842 N   0  0  0  0  0  0  0  0  0  0  0  0
    4.0051    1.3597    1.4322 O   0  0  0  0  0  0  0  0  0  0  0  0
  1  2  1  0
  2  3  2  0
  2  4  1  0
  4  5  1  0
  5  6  1  0
  6  7  1  0
  7  8  1  0
  8  9  2  0
  8 10  1  0
 10 11  1  0
 11 12  1  0
 12 13  1  0
 12 14  2  0
M  END

