
     RDKit          3D

 12 11  0  0  0  0  0  0  0  0999 V2000
   -3.2813    2.1591    0.4704 O   0  0  0  0  0  1  0  0  0  0  0  0
   -2.8820    0.8319    0.3984 C   0  0  0  0  0  0  0  0  0  0  0  0
   -3.6349   -0.0178    0.9277 O   0  0  0  0  0  0  0  0  0  0  0  0
   -1.6385    0.3800   -0.2579 C   0  0  0  0  0  0  0  0  0  0  0  0
   -1.5497   -1.1219   -0.1321 C   0  0  0  0  0  0  0  0  0  0  0  0
   -0.2942   -1.6046   -0.7917 C   0  0  0  0  0  0  0  0  0  0  0  0
    0.8673   -0.9647   -0.1112 C   0  0  0  0  0  0  0  0  0  0  0  0
    0.6765   -0.1734    0.8421 O   0  0  0  0  0  0  0  0  0  0  0  0
    2.2026   -1.2050   -0.4882 N   0  0  0  0  0  0  0  0  0  0  0  0
    3.3875   -0.6609    0.0733 C   0  0  0  0  0  0  0  0  0  0  0  0
    3.5473    0.8121    0.0226 C   0  0  0  0  0  0  0  0  0  0  0  0
    2.5995    1.5651    0.6537 O   0  0  0  0  0  0  0  0  0  0  0  0
  1  2  1  0
  2  3  2  0
  2  4  1  0
  4  5  1  0
  5  6  1  0
  6  7  1  0
  7  8  2  0
  7  9  1  0
  9 10  1  0
 10 11  1  0
 11 12  1  0
M  RAD  1   1   2
M  END

