
     RDKit          3D

 41 43  0  0  0  0  0  0  0  0999 V2000
   -4.3991    0.3650   -0.4944 C   0  0  0  0  0  0  0  0  0  0  0  0
   -3.1838   -0.1974   -1.2199 C   0  0  0  0  0  0  0  0  0  0  0  0
   -2.1389   -0.3855    0.0566 C   0  0  2  0  0  0  0  0  0  0  0  0
   -2.1855    1.2342    0.4127 C   0  0  0  0  0  0  0  0  0  0  0  0
   -0.8203   -0.2222   -0.9010 C   0  0  0  0  0  0  0  0  0  0  0  0
    0.2870   -0.3619    0.0695 C   0  0  0  0  0  0  0  0  0  0  0  0
    0.1185   -0.5535    1.2866 O   0  0  0  0  0  0  0  0  0  0  0  0
    1.6045   -0.2579   -0.5089 N   0  0  0  0  0  0  0  0  0  0  0  0
    2.7209   -0.3885    0.4038 C   0  0  0  0  0  0  0  0  0  0  0  0
    3.9842   -0.2437   -0.4395 C   0  0  0  0  0  0  0  0  0  0  0  0
    4.0124    1.0114   -1.0769 O   0  0  0  0  0  0  0  0  0  0  0  0
   -5.5052    0.4505   -2.4482 C   0  0  0  0  0  0  0  0  0  0  0  0
   -4.2520   -0.1906   -1.5734 C   0  0  2  0  0  0  0  0  0  0  0  0
   -4.6268    0.6564   -0.1984 C   0  0  0  0  0  0  0  0  0  0  0  0
   -5.9629    0.2399    0.1445 N   0  0  0  0  0  0  0  0  0  0  0  0
   -7.0361    0.8700   -0.3163 N   0  0  0  0  0  0  0  0  0  0  0  0
   -8.1602    0.3004    0.1394 C   0  0  0  0  0  0  0  0  0  0  0  0
   -7.7245   -0.7315    0.9187 N   0  0  0  0  0  0  0  0  0  0  0  0
   -6.4010   -0.7337    0.8956 N   0  0  0  0  0  0  0  0  0  0  0  0
   -3.2184    0.8536   -2.1386 N   0  0  0  0  0  0  0  0  0  0  0  0
   -1.8941    0.7879   -1.7146 C   0  0  0  0  0  0  0  0  0  0  0  0
   -0.9026    1.5945   -2.0973 N   0  0  0  0  0  0  0  0  0  0  0  0
    0.3497    1.4409   -1.6214 C   0  0  0  0  0  0  0  0  0  0  0  0
    0.6687    0.4458   -0.7181 C   0  0  0  0  0  0  0  0  0  0  0  0
    1.9502    0.2731   -0.2184 C   0  0  0  0  0  0  0  0  0  0  0  0
    2.2147   -0.7390    0.6836 C   0  0  0  0  0  0  0  0  0  0  0  0
    3.4701   -0.9742    1.2270 O   0  0  0  0  0  0  0  0  0  0  0  0
    4.5755   -0.2136    0.9137 C   0  0  0  0  0  0  0  0  0  0  0  0
    4.4388    0.8357    0.0168 C   0  0  0  0  0  0  0  0  0  0  0  0
    5.5332    1.6116   -0.3123 C   0  0  0  0  0  0  0  0  0  0  0  0
    6.7551    1.3471    0.2458 C   0  0  0  0  0  0  0  0  0  0  0  0
    7.8724    2.0755   -0.0379 F   0  0  0  0  0  0  0  0  0  0  0  0
    6.8829    0.2965    1.1414 C   0  0  0  0  0  0  0  0  0  0  0  0
    5.7911   -0.4706    1.4639 C   0  0  0  0  0  0  0  0  0  0  0  0
    5.8751   -1.5156    2.3425 F   0  0  0  0  0  0  0  0  0  0  0  0
    1.1608   -1.5507    1.0531 C   0  0  0  0  0  0  0  0  0  0  0  0
    1.3724   -2.4858    1.8773 O   0  0  0  0  0  0  0  0  0  0  0  0
   -0.0886   -1.3633    0.5504 N   0  0  0  0  0  0  0  0  0  0  0  0
   -1.1955   -2.2240    0.9451 C   0  0  0  0  0  0  0  0  0  0  0  0
   -0.3637   -0.3819   -0.3295 C   0  0  0  0  0  0  0  0  0  0  0  0
   -1.5791   -0.1801   -0.8345 N   0  0  0  0  0  0  0  0  0  0  0  0
  1  2  1  0
  2  3  1  0
  3  4  1  1
  3  5  1  0
  5  6  1  0
  6  7  2  0
  6  8  1  0
  8  9  1  0
  9 10  1  0
 10 11  1  0
 13 12  1  6
 13 14  1  0
 14 15  1  0
 15 16  1  0
 16 17  2  0
 17 18  1  0
 18 19  2  0
 13 20  1  0
 20 21  1  0
 21 22  2  0
 22 23  1  0
 23 24  2  0
 24 25  1  0
 25 26  2  0
 26 27  1  0
 27 28  1  0
 28 29  2  0
 29 30  1  0
 30 31  2  0
 31 32  1  0
 31 33  1  0
 33 34  2  0
 34 35  1  0
 26 36  1  0
 36 37  2  0
 36 38  1  0
 38 39  1  0
 38 40  1  0
 40 41  2  0
 19 15  1  0
 41 21  1  0
 40 24  1  0
 34 28  1  0
M  END

