
     RDKit          3D

 40 42  0  0  0  0  0  0  0  0999 V2000
    3.8845    0.6861    0.2699 C   0  0  0  0  0  0  0  0  0  0  0  0
    3.0908   -0.1557   -0.7074 C   0  0  0  0  0  0  0  0  0  0  0  0
    1.6992   -0.2619   -0.1950 C   0  0  0  0  0  0  0  0  0  0  0  0
    1.3494    0.2923    0.8784 O   0  0  0  0  0  0  0  0  0  0  0  0
    0.7055   -0.9969   -0.9008 N   0  0  0  0  0  0  0  0  0  0  0  0
   -0.6481   -1.0760   -0.3630 C   0  0  0  0  0  0  0  0  0  0  0  0
   -1.1740    0.3215   -0.2695 C   0  0  0  0  0  0  0  0  0  0  0  0
   -2.5489    0.3526    0.2677 C   0  0  0  0  0  0  0  0  0  0  0  0
   -3.2546    1.5621    0.4468 N   0  0  0  0  0  0  0  0  0  0  0  0
   -3.1038   -0.7240    0.5728 O   0  0  0  0  0  0  0  0  0  0  0  0
   -5.4536    3.8791   -1.1048 C   0  0  0  0  0  0  0  0  0  0  0  0
   -4.7280    2.4091   -1.4029 C   0  0  2  0  0  0  0  0  0  0  0  0
   -5.7938    1.6656   -0.4321 C   0  0  0  0  0  0  0  0  0  0  0  0
   -5.5401    0.2665   -0.3733 N   0  0  0  0  0  0  0  0  0  0  0  0
   -4.7600   -0.2412    0.5514 N   0  0  0  0  0  0  0  0  0  0  0  0
   -4.6816   -1.5675    0.3942 C   0  0  0  0  0  0  0  0  0  0  0  0
   -5.4477   -1.8331   -0.6638 N   0  0  0  0  0  0  0  0  0  0  0  0
   -5.9458   -0.7280   -1.1011 N   0  0  0  0  0  0  0  0  0  0  0  0
   -3.6423    2.6533   -0.3315 N   0  0  0  0  0  0  0  0  0  0  0  0
   -2.5186    1.8068   -0.3082 C   0  0  0  0  0  0  0  0  0  0  0  0
   -2.4498    0.8613   -1.2193 N   0  0  0  0  0  0  0  0  0  0  0  0
   -1.4631   -0.0420   -1.3618 C   0  0  0  0  0  0  0  0  0  0  0  0
   -0.4348    0.0351   -0.4703 C   0  0  0  0  0  0  0  0  0  0  0  0
    0.6041   -0.8597   -0.5629 C   0  0  0  0  0  0  0  0  0  0  0  0
    1.6564   -0.7996    0.3302 C   0  0  0  0  0  0  0  0  0  0  0  0
    2.6660   -1.7024    0.2063 O   0  0  0  0  0  0  0  0  0  0  0  0
    3.9909   -1.4446   -0.0189 C   0  0  0  0  0  0  0  0  0  0  0  0
    4.5280   -0.1916   -0.1601 C   0  0  0  0  0  0  0  0  0  0  0  0
    5.8805   -0.0172   -0.3862 C   0  0  0  0  0  0  0  0  0  0  0  0
    6.7328   -1.0983   -0.4769 C   0  0  0  0  0  0  0  0  0  0  0  0
    8.0491   -0.8466   -0.7004 F   0  0  0  0  0  0  0  0  0  0  0  0
    6.2090   -2.3531   -0.3378 C   0  0  0  0  0  0  0  0  0  0  0  0
    4.8591   -2.5239   -0.1123 C   0  0  0  0  0  0  0  0  0  0  0  0
    4.4060   -3.7929    0.0160 F   0  0  0  0  0  0  0  0  0  0  0  0
    1.5859    0.1924    1.2875 C   0  0  0  0  0  0  0  0  0  0  0  0
    2.5613    0.2374    2.1044 O   0  0  0  0  0  0  0  0  0  0  0  0
    0.5538    1.0546    1.3521 N   0  0  0  0  0  0  0  0  0  0  0  0
    0.5686    2.0614    2.3919 C   0  0  0  0  0  0  0  0  0  0  0  0
   -0.4789    1.0268    0.5075 C   0  0  0  0  0  0  0  0  0  0  0  0
   -1.5132    1.8924    0.5739 N   0  0  0  0  0  0  0  0  0  0  0  0
  1  2  1  0
  2  3  1  0
  3  4  2  0
  3  5  1  0
  5  6  1  0
  6  7  1  0
  7  8  1  0
  8  9  1  0
  8 10  2  0
 12 11  1  1
 12 13  1  0
 13 14  1  0
 14 15  1  0
 15 16  2  0
 16 17  1  0
 17 18  2  0
 12 19  1  0
 19 20  1  0
 20 21  2  0
 21 22  1  0
 22 23  2  0
 23 24  1  0
 24 25  2  0
 25 26  1  0
 26 27  1  0
 27 28  2  0
 28 29  1  0
 29 30  2  0
 30 31  1  0
 30 32  1  0
 32 33  2  0
 33 34  1  0
 25 35  1  0
 35 36  2  0
 35 37  1  0
 37 38  1  0
 37 39  1  0
 39 40  2  0
 18 14  1  0
 40 20  1  0
 39 23  1  0
 33 27  1  0
M  END

