
     RDKit          3D

 45 48  0  0  0  0  0  0  0  0999 V2000
    5.5549   -0.2600   -1.0283 C   0  0  0  0  0  0  0  0  0  0  0  0
    5.1756   -0.1616    0.4247 C   0  0  0  0  0  0  0  0  0  0  0  0
    5.5436    1.1983    0.9555 C   0  0  0  0  0  0  0  0  0  0  0  0
    3.7565   -0.5472    0.6932 C   0  0  0  0  0  0  0  0  0  0  0  0
    2.7689    0.3328   -0.0576 C   0  0  0  0  0  0  0  0  0  0  0  0
    1.3940   -0.1297    0.2753 C   0  0  0  0  0  0  0  0  0  0  0  0
    1.1979   -1.1106    1.0699 O   0  0  0  0  0  0  0  0  0  0  0  0
    0.2404    0.4813   -0.2613 N   0  0  0  0  0  0  0  0  0  0  0  0
   -1.0922   -0.0096    0.0961 C   0  0  0  0  0  0  0  0  0  0  0  0
   -2.1403    0.8176   -0.6136 C   0  0  0  0  0  0  0  0  0  0  0  0
   -3.4635    0.2821   -0.2194 C   0  0  0  0  0  0  0  0  0  0  0  0
   -4.1586   -0.7078   -0.8579 C   0  0  0  0  0  0  0  0  0  0  0  0
   -5.2943   -0.8652   -0.1589 N   0  0  0  0  0  0  0  0  0  0  0  0
   -5.3078   -0.0110    0.8710 C   0  0  0  0  0  0  0  0  0  0  0  0
   -4.1752    0.6905    0.8237 N   0  0  0  0  0  0  0  0  0  0  0  0
   -6.0132    2.0463   -0.9831 C   0  0  0  0  0  0  0  0  0  0  0  0
   -4.4078    1.7411   -1.2802 C   0  0  2  0  0  0  0  0  0  0  0  0
   -4.6316    0.3133   -2.0764 C   0  0  0  0  0  0  0  0  0  0  0  0
   -5.2733   -0.6210   -1.2605 N   0  0  0  0  0  0  0  0  0  0  0  0
   -4.8067   -1.5422   -0.4091 N   0  0  0  0  0  0  0  0  0  0  0  0
   -5.8219   -2.1992    0.1407 C   0  0  0  0  0  0  0  0  0  0  0  0
   -6.9595   -1.6972   -0.3607 N   0  0  0  0  0  0  0  0  0  0  0  0
   -6.6007   -0.7563   -1.1947 N   0  0  0  0  0  0  0  0  0  0  0  0
   -4.1761    1.0491    0.1236 N   0  0  0  0  0  0  0  0  0  0  0  0
   -2.8330    0.6050    0.2968 C   0  0  0  0  0  0  0  0  0  0  0  0
   -2.5864    0.0010    1.4952 N   0  0  0  0  0  0  0  0  0  0  0  0
   -1.3457   -0.4510    1.7484 C   0  0  0  0  0  0  0  0  0  0  0  0
   -0.3205   -0.3201    0.8315 C   0  0  0  0  0  0  0  0  0  0  0  0
    0.9225   -0.7881    1.1203 C   0  0  0  0  0  0  0  0  0  0  0  0
    1.9676   -0.6403    0.1542 C   0  0  0  0  0  0  0  0  0  0  0  0
    3.1309   -1.1309    0.5384 O   0  0  0  0  0  0  0  0  0  0  0  0
    4.4007   -0.8081    0.8248 C   0  0  0  0  0  0  0  0  0  0  0  0
    4.7974   -1.0209    2.1871 C   0  0  0  0  0  0  0  0  0  0  0  0
    6.0570   -0.7349    2.6089 C   0  0  0  0  0  0  0  0  0  0  0  0
    7.0340   -0.2297    1.7851 C   0  0  0  0  0  0  0  0  0  0  0  0
    8.2832    0.0538    2.2142 F   0  0  0  0  0  0  0  0  0  0  0  0
    6.6878   -0.0163    0.4797 C   0  0  0  0  0  0  0  0  0  0  0  0
    5.3857   -0.3087    0.0283 C   0  0  0  0  0  0  0  0  0  0  0  0
    5.1141   -0.1028   -1.2908 F   0  0  0  0  0  0  0  0  0  0  0  0
    1.6243   -0.0260   -1.0108 C   0  0  0  0  0  0  0  0  0  0  0  0
    2.4345    0.1627   -1.9339 O   0  0  0  0  0  0  0  0  0  0  0  0
    0.3643    0.4284   -1.2578 N   0  0  0  0  0  0  0  0  0  0  0  0
    0.0725    1.0777   -2.5305 C   0  0  0  0  0  0  0  0  0  0  0  0
   -0.6306    0.3005   -0.3651 C   0  0  0  0  0  0  0  0  0  0  0  0
   -1.8695    0.7545   -0.6240 N   0  0  0  0  0  0  0  0  0  0  0  0
  1  2  1  0
  2  3  1  0
  2  4  1  0
  4  5  1  0
  5  6  1  0
  6  7  2  0
  6  8  1  0
  8  9  1  0
  9 10  1  0
 10 11  1  0
 11 12  2  0
 12 13  1  0
 13 14  1  0
 14 15  2  0
 17 16  1  1
 17 18  1  0
 18 19  1  0
 19 20  1  0
 20 21  2  0
 21 22  1  0
 22 23  2  0
 17 24  1  0
 24 25  1  0
 25 26  2  0
 26 27  1  0
 27 28  2  0
 28 29  1  0
 29 30  2  0
 30 31  1  0
 31 32  1  0
 32 33  2  0
 33 34  1  0
 34 35  2  0
 35 36  1  0
 35 37  1  0
 37 38  2  0
 38 39  1  0
 30 40  1  0
 40 41  2  0
 40 42  1  0
 42 43  1  0
 42 44  1  0
 44 45  2  0
 15 11  1  0
 23 19  1  0
 45 25  1  0
 44 28  1  0
 38 32  1  0
M  END

