
     RDKit          3D

 13 12  0  0  0  0  0  0  0  0999 V2000
   -3.7315    1.8273   -0.2242 C   0  0  0  0  0  0  0  0  0  0  0  0
   -3.8657    0.8990   -1.4191 C   0  0  0  0  0  0  0  0  0  0  0  0
   -2.5798    0.3371   -1.7905 N   0  0  0  0  0  0  0  0  0  0  0  0
   -1.9042   -0.4418   -0.8013 C   0  0  0  0  0  0  0  0  0  0  0  0
   -2.4301   -0.6173    0.3434 O   0  0  0  0  0  0  0  0  0  0  0  0
   -0.5910   -1.0185   -1.1735 C   0  0  0  0  0  0  0  0  0  0  0  0
   -0.0434   -1.8052    0.0085 C   0  0  0  0  0  0  0  0  0  0  0  0
    0.1317   -0.8891    1.2200 C   0  0  0  0  0  0  0  0  0  0  0  0
    1.1109    0.2340    0.8661 C   0  0  0  0  0  0  0  0  0  0  0  0
    2.3633   -0.4077    0.5128 N   0  0  0  0  0  0  0  0  0  0  0  0
    3.4880    0.3887    0.1299 C   0  0  0  0  0  0  0  0  0  0  0  0
    4.7414   -0.1874   -0.2269 N   0  0  0  0  0  0  0  0  0  0  0  0
    3.3104    1.6809    0.1226 N   0  0  0  0  0  4  0  0  0  0  0  0
  1  2  1  0
  2  3  1  0
  3  4  1  0
  4  5  2  0
  4  6  1  0
  6  7  1  0
  7  8  1  0
  8  9  1  0
  9 10  1  0
 10 11  1  0
 11 12  1  0
 11 13  2  0
M  CHG  1  13   1
M  END

