
     RDKit          3D

 17 16  0  0  0  0  0  0  0  0999 V2000
   -6.2285    0.9117    1.2534 N   0  0  0  0  0  0  0  0  0  0  0  0
   -4.8877    0.5820    1.6670 C   0  0  0  0  0  0  0  0  0  0  0  0
   -4.4316    0.9686    2.8108 N   0  0  0  0  0  4  0  0  0  0  0  0
   -4.0220   -0.1775    0.8349 N   0  0  0  0  0  0  0  0  0  0  0  0
   -2.6816   -0.4833    1.2963 C   0  0  0  0  0  0  0  0  0  0  0  0
   -1.9836   -1.2996    0.2155 C   0  0  0  0  0  0  0  0  0  0  0  0
   -1.9130   -0.5004   -1.0893 C   0  0  0  0  0  0  0  0  0  0  0  0
   -1.1488    0.7631   -0.8661 C   0  0  0  0  0  0  0  0  0  0  0  0
    0.2134    0.5429   -0.4214 N   0  0  0  0  0  0  0  0  0  0  0  0
    1.1710   -0.1735   -1.1658 C   0  0  0  0  0  0  0  0  0  0  0  0
    0.8721   -0.6629   -2.2755 O   0  0  0  0  0  0  0  0  0  0  0  0
    2.5428   -0.3603   -0.6522 C   0  0  0  0  0  0  0  0  0  0  0  0
    3.4150   -1.1460   -1.5809 C   0  0  0  0  0  0  0  0  0  0  0  0
    4.7857   -1.2763   -0.9617 C   0  0  0  0  0  0  0  0  0  0  0  0
    5.3907    0.1101   -0.7377 C   0  0  0  0  0  0  0  0  0  0  0  0
    4.5294    0.9397    0.1845 C   0  0  0  0  0  0  0  0  0  0  0  0
    4.3766    0.3209    1.4881 N   0  0  0  0  0  4  0  0  0  0  0  0
  1  2  1  0
  2  3  2  0
  2  4  1  0
  4  5  1  0
  5  6  1  0
  6  7  1  0
  7  8  1  0
  8  9  1  0
  9 10  1  0
 10 11  2  0
 10 12  1  0
 12 13  1  0
 13 14  1  0
 14 15  1  0
 15 16  1  0
 16 17  1  0
M  CHG  2   3   1  17   1
M  END

