
     RDKit          3D

 13 12  0  0  0  0  0  0  0  0999 V2000
    5.9725    0.3137    0.3935 C   0  0  0  0  0  0  0  0  0  0  0  0
    4.6476    0.0064    1.5790 S   0  0  0  0  0  0  0  0  0  0  0  0
    3.1299   -0.4966    0.7149 C   0  0  0  0  0  0  0  0  0  0  0  0
    2.6480    0.6900   -0.1045 C   0  0  0  0  0  0  0  0  0  0  0  0
    1.3838    0.3541   -0.8578 C   0  0  0  0  0  0  0  0  0  0  0  0
    0.2933   -0.0263    0.0669 C   0  0  0  0  0  0  0  0  0  0  0  0
    0.5457   -0.0213    1.3091 O   0  0  0  0  0  0  0  0  0  0  0  0
   -1.0025   -0.3923   -0.3440 N   0  0  0  0  0  0  0  0  0  0  0  0
   -2.0222   -0.7546    0.6313 C   0  0  0  0  0  0  0  0  0  0  0  0
   -3.2705   -1.0850   -0.1786 C   0  0  0  0  0  0  0  0  0  0  0  0
   -3.6216    0.1692   -0.9500 C   0  0  0  0  0  0  0  0  0  0  0  0
   -3.8972    1.3317   -0.0072 C   0  0  0  0  0  0  0  0  0  0  0  0
   -4.8067   -0.0890   -1.8545 C   0  0  0  0  0  0  0  0  0  0  0  0
  1  2  1  0
  2  3  1  0
  3  4  1  0
  4  5  1  0
  5  6  1  0
  6  7  2  0
  6  8  1  0
  8  9  1  0
  9 10  1  0
 10 11  1  0
 11 12  1  0
 11 13  1  0
M  END

