
     RDKit          3D

 44 46  0  0  0  0  0  0  0  0999 V2000
   -3.6972   -2.3887    1.7155 C   0  0  0  0  0  0  0  0  0  0  0  0
   -4.6729   -1.0942    1.2716 C   0  0  2  0  0  0  0  0  0  0  0  0
   -5.6211   -2.0681    0.3162 C   0  0  0  0  0  0  0  0  0  0  0  0
   -6.5653   -1.1056   -0.1814 N   0  0  0  0  0  0  0  0  0  0  0  0
   -6.4801   -0.3717   -1.2706 N   0  0  0  0  0  0  0  0  0  0  0  0
   -7.5964    0.3964   -1.3479 C   0  0  0  0  0  0  0  0  0  0  0  0
   -8.3671    0.1168   -0.2822 N   0  0  0  0  0  0  0  0  0  0  0  0
   -7.7212   -0.7984    0.4131 N   0  0  0  0  0  0  0  0  0  0  0  0
   -3.7367   -0.6856    0.0574 N   0  0  0  0  0  0  0  0  0  0  0  0
   -2.4124   -0.3516    0.4260 C   0  0  0  0  0  0  0  0  0  0  0  0
   -1.9723   -0.3726    1.6769 N   0  0  0  0  0  0  0  0  0  0  0  0
   -0.7065   -0.0472    1.9762 C   0  0  0  0  0  0  0  0  0  0  0  0
    0.1391    0.3128    0.9568 C   0  0  0  0  0  0  0  0  0  0  0  0
    1.4562    0.6599    1.1955 C   0  0  0  0  0  0  0  0  0  0  0  0
    2.2767    1.0159    0.1488 C   0  0  0  0  0  0  0  0  0  0  0  0
    3.5872    1.3520    0.4657 O   0  0  0  0  0  0  0  0  0  0  0  0
    4.6860    0.6910   -0.0199 C   0  0  0  0  0  0  0  0  0  0  0  0
    4.5806   -0.3863   -0.8820 C   0  0  0  0  0  0  0  0  0  0  0  0
    5.7113   -1.0267   -1.3499 C   0  0  0  0  0  0  0  0  0  0  0  0
    6.9568   -0.5855   -0.9519 C   0  0  0  0  0  0  0  0  0  0  0  0
    8.1119   -1.1764   -1.3795 F   0  0  0  0  0  0  0  0  0  0  0  0
    7.0490    0.4763   -0.1026 C   0  0  0  0  0  0  0  0  0  0  0  0
    5.9312    1.1273    0.3742 C   0  0  0  0  0  0  0  0  0  0  0  0
    6.0614    2.1875    1.2236 F   0  0  0  0  0  0  0  0  0  0  0  0
    1.8006    1.0299   -1.1301 C   0  0  0  0  0  0  0  0  0  0  0  0
    2.5512    1.3528   -2.0635 O   0  0  0  0  0  0  0  0  0  0  0  0
    0.5136    0.6912   -1.3676 N   0  0  0  0  0  0  0  0  0  0  0  0
   -0.0001    0.7039   -2.7268 C   0  0  0  0  0  0  0  0  0  0  0  0
   -0.2882    0.3428   -0.3405 C   0  0  0  0  0  0  0  0  0  0  0  0
   -1.5754    0.0020   -0.5597 N   0  0  0  0  0  0  0  0  0  0  0  0
    3.6826   -0.6612   -1.2016 N   0  0  0  0  0  0  0  0  0  0  0  0
    2.6476   -1.5345   -0.8040 C   0  0  0  0  0  0  0  0  0  0  0  0
    1.8792   -1.9751   -1.6834 O   0  0  0  0  0  0  0  0  0  0  0  0
    2.4771   -1.9183    0.6174 C   0  0  0  0  0  0  0  0  0  0  0  0
    1.2948   -2.8564    0.7346 C   0  0  0  0  0  0  0  0  0  0  0  0
    0.0791   -2.0747    0.2158 C   0  0  0  0  0  0  0  0  0  0  0  0
   -0.0000   -0.9116    1.1140 N   0  0  0  0  0  0  0  0  0  0  0  0
   -1.0087    0.0786    0.9697 C   0  0  0  0  0  0  0  0  0  0  0  0
   -1.8251   -0.1006    0.0310 O   0  0  0  0  0  0  0  0  0  0  0  0
   -1.0767    1.2612    1.8950 C   0  0  0  0  0  0  0  0  0  0  0  0
   -2.2015    2.1680    1.5411 C   0  0  0  0  0  0  0  0  0  0  0  0
   -2.0011    2.6646    0.1602 C   0  0  0  0  0  0  0  0  0  0  0  0
   -2.9519    3.5278   -0.4424 N   0  0  0  0  0  0  0  0  0  0  0  0
   -0.9953    2.3323   -0.4927 O   0  0  0  0  0  0  0  0  0  0  0  0
  2  1  1  1
  2  3  1  0
  3  4  1  0
  4  5  1  0
  5  6  2  0
  6  7  1  0
  7  8  2  0
  2  9  1  0
  9 10  1  0
 10 11  2  0
 11 12  1  0
 12 13  2  0
 13 14  1  0
 14 15  2  0
 15 16  1  0
 16 17  1  0
 17 18  2  0
 18 19  1  0
 19 20  2  0
 20 21  1  0
 20 22  1  0
 22 23  2  0
 23 24  1  0
 15 25  1  0
 25 26  2  0
 25 27  1  0
 27 28  1  0
 27 29  1  0
 29 30  2  0
 31 32  1  0
 32 33  2  0
 32 34  1  0
 34 35  1  0
 35 36  1  0
 36 37  1  0
 37 38  1  0
 38 39  2  0
 38 40  1  0
 40 41  1  0
 41 42  1  0
 42 43  1  0
 42 44  2  0
  8  4  1  0
 30 10  1  0
 29 13  1  0
 23 17  1  0
M  END

