
     RDKit          3D

 37 39  0  0  0  0  0  0  0  0999 V2000
    2.3629    0.7621    0.2942 C   0  0  0  0  0  0  0  0  0  0  0  0
    2.0421   -0.6286    0.8410 C   0  0  0  0  0  0  0  0  0  0  0  0
    0.7113   -0.9551    0.3124 N   0  0  0  0  0  0  0  0  0  0  0  0
   -0.4145   -0.1194    0.6304 C   0  0  0  0  0  0  0  0  0  0  0  0
   -0.2367    0.8917    1.3669 O   0  0  0  0  0  0  0  0  0  0  0  0
   -1.7345   -0.4960    0.0697 C   0  0  0  0  0  0  0  0  0  0  0  0
   -2.7306    0.5452    0.5589 C   0  0  0  0  0  0  0  0  0  0  0  0
   -5.6863    1.9581   -1.4633 C   0  0  0  0  0  0  0  0  0  0  0  0
   -4.1834    1.2926   -1.5185 C   0  0  2  0  0  0  0  0  0  0  0  0
   -4.6957   -0.2503   -1.3387 C   0  0  0  0  0  0  0  0  0  0  0  0
   -5.3928   -0.3694   -0.1086 N   0  0  0  0  0  0  0  0  0  0  0  0
   -4.9537   -0.6713    1.0919 N   0  0  0  0  0  0  0  0  0  0  0  0
   -6.0123   -0.6578    1.9414 C   0  0  0  0  0  0  0  0  0  0  0  0
   -7.1031   -0.3431    1.2400 N   0  0  0  0  0  0  0  0  0  0  0  0
   -6.7163   -0.1701   -0.0028 N   0  0  0  0  0  0  0  0  0  0  0  0
   -3.8911    1.5243    0.0008 N   0  0  0  0  0  0  0  0  0  0  0  0
   -2.5929    1.0394    0.3332 C   0  0  0  0  0  0  0  0  0  0  0  0
   -2.1558    1.1547    1.6256 N   0  0  0  0  0  0  0  0  0  0  0  0
   -0.9516    0.7277    2.0308 C   0  0  0  0  0  0  0  0  0  0  0  0
   -0.0894    0.1411    1.1307 C   0  0  0  0  0  0  0  0  0  0  0  0
    1.1577   -0.3200    1.4700 C   0  0  0  0  0  0  0  0  0  0  0  0
    2.0169   -0.9067    0.5642 C   0  0  0  0  0  0  0  0  0  0  0  0
    3.2737   -1.3780    0.8784 O   0  0  0  0  0  0  0  0  0  0  0  0
    4.4512   -0.9692    0.3522 C   0  0  0  0  0  0  0  0  0  0  0  0
    5.2785   -1.8415   -0.3164 C   0  0  0  0  0  0  0  0  0  0  0  0
    6.4678   -1.4329   -0.8490 C   0  0  0  0  0  0  0  0  0  0  0  0
    6.8929   -0.1211   -0.7390 C   0  0  0  0  0  0  0  0  0  0  0  0
    8.0782    0.2511   -1.2788 F   0  0  0  0  0  0  0  0  0  0  0  0
    6.0840    0.7662   -0.0764 C   0  0  0  0  0  0  0  0  0  0  0  0
    4.8772    0.3332    0.4593 C   0  0  0  0  0  0  0  0  0  0  0  0
    4.1379    1.2872    1.1018 F   0  0  0  0  0  0  0  0  0  0  0  0
    1.5324   -1.0023   -0.7317 C   0  0  0  0  0  0  0  0  0  0  0  0
    2.2890   -1.5325   -1.5867 O   0  0  0  0  0  0  0  0  0  0  0  0
    0.3127   -0.5543   -1.0762 N   0  0  0  0  0  0  0  0  0  0  0  0
   -0.1774   -0.6670   -2.4548 C   0  0  0  0  0  0  0  0  0  0  0  0
   -0.5089    0.0179   -0.1627 C   0  0  0  0  0  0  0  0  0  0  0  0
   -1.7391    0.4682   -0.5169 N   0  0  0  0  0  0  0  0  0  0  0  0
  1  2  1  0
  2  3  1  0
  3  4  1  0
  4  5  2  0
  4  6  1  0
  6  7  1  0
  9  8  1  1
  9 10  1  0
 10 11  1  0
 11 12  1  0
 12 13  2  0
 13 14  1  0
 14 15  2  0
  9 16  1  0
 16 17  1  0
 17 18  2  0
 18 19  1  0
 19 20  2  0
 20 21  1  0
 21 22  2  0
 22 23  1  0
 23 24  1  0
 24 25  2  0
 25 26  1  0
 26 27  2  0
 27 28  1  0
 27 29  1  0
 29 30  2  0
 30 31  1  0
 22 32  1  0
 32 33  2  0
 32 34  1  0
 34 35  1  0
 34 36  1  0
 36 37  2  0
 15 11  1  0
 37 17  1  0
 36 20  1  0
 30 24  1  0
M  END

