
     RDKit          3D

 45 47  0  0  0  0  0  0  0  0999 V2000
   -5.2274   -0.1277   -1.9081 C   0  0  0  0  0  0  0  0  0  0  0  0
   -3.8037    0.6376   -1.4252 C   0  0  1  0  0  0  0  0  0  0  0  0
   -4.5570    1.4477   -0.3414 O   0  0  0  0  0  0  0  0  0  0  0  0
   -3.4368   -0.5872   -0.3500 C   0  0  0  0  0  0  0  0  0  0  0  0
   -2.1427   -0.1229    0.2436 C   0  0  0  0  0  0  0  0  0  0  0  0
   -1.5818    0.9340   -0.0709 O   0  0  0  0  0  0  0  0  0  0  0  0
   -1.5620   -0.9519    1.2033 N   0  0  0  0  0  0  0  0  0  0  0  0
   -0.4086   -0.8930    1.9586 C   0  0  0  0  0  0  0  0  0  0  0  0
    0.8375   -0.9065    1.1619 C   0  0  0  0  0  0  0  0  0  0  0  0
    0.9278    0.2592    0.2469 C   0  0  0  0  0  0  0  0  0  0  0  0
    2.2294    0.1887   -0.5438 C   0  0  0  0  0  0  0  0  0  0  0  0
    3.3405    0.2076    0.3796 N   0  0  0  0  0  0  0  0  0  0  0  0
    4.6699    0.1538   -0.0592 C   0  0  0  0  0  0  0  0  0  0  0  0
    5.7967    0.1702    0.8198 N   0  0  0  0  0  0  0  0  0  0  0  0
    4.9182    0.0855   -1.3148 N   0  0  0  0  0  4  0  0  0  0  0  0
    3.9499   -0.7646    1.5971 C   0  0  0  0  0  0  0  0  0  0  0  0
    4.2837   -1.9334    0.4765 C   0  0  2  0  0  0  0  0  0  0  0  0
    5.8220   -1.4940    0.1195 C   0  0  0  0  0  0  0  0  0  0  0  0
    5.8790   -0.1879   -0.3805 N   0  0  0  0  0  0  0  0  0  0  0  0
    5.7810    0.0980   -1.6629 N   0  0  0  0  0  0  0  0  0  0  0  0
    5.8679    1.4119   -1.8523 C   0  0  0  0  0  0  0  0  0  0  0  0
    6.0263    1.9703   -0.6432 N   0  0  0  0  0  0  0  0  0  0  0  0
    6.0298    0.9969    0.2176 N   0  0  0  0  0  0  0  0  0  0  0  0
    3.6551   -1.1058   -0.7088 N   0  0  0  0  0  0  0  0  0  0  0  0
    2.2647   -0.8095   -0.5047 C   0  0  0  0  0  0  0  0  0  0  0  0
    1.6395   -0.1150   -1.4467 N   0  0  0  0  0  0  0  0  0  0  0  0
    0.3360    0.1850   -1.2962 C   0  0  0  0  0  0  0  0  0  0  0  0
   -0.3869   -0.2029   -0.1920 C   0  0  0  0  0  0  0  0  0  0  0  0
   -1.7170    0.0799    0.0046 C   0  0  0  0  0  0  0  0  0  0  0  0
   -2.3945   -0.3441    1.1509 C   0  0  0  0  0  0  0  0  0  0  0  0
   -3.7384   -0.0596    1.3517 O   0  0  0  0  0  0  0  0  0  0  0  0
   -4.4308    0.6632    0.3939 C   0  0  0  0  0  0  0  0  0  0  0  0
   -5.0125    1.8590    0.7111 C   0  0  0  0  0  0  0  0  0  0  0  0
   -5.7152    2.6340   -0.1819 C   0  0  0  0  0  0  0  0  0  0  0  0
   -5.8325    2.1571   -1.4862 C   0  0  0  0  0  0  0  0  0  0  0  0
   -6.5233    2.9072   -2.3860 F   0  0  0  0  0  0  0  0  0  0  0  0
   -5.2510    0.9525   -1.8202 C   0  0  0  0  0  0  0  0  0  0  0  0
   -4.5469    0.1876   -0.9037 C   0  0  0  0  0  0  0  0  0  0  0  0
   -3.9779   -0.9997   -1.2471 F   0  0  0  0  0  0  0  0  0  0  0  0
   -1.6749   -1.0615    2.0841 C   0  0  0  0  0  0  0  0  0  0  0  0
   -2.2048   -1.4852    3.1504 O   0  0  0  0  0  0  0  0  0  0  0  0
   -0.3728   -1.3356    1.8868 N   0  0  0  0  0  0  0  0  0  0  0  0
    0.3844   -2.0891    2.8661 C   0  0  0  0  0  0  0  0  0  0  0  0
    0.2851   -0.9227    0.7715 C   0  0  0  0  0  0  0  0  0  0  0  0
    1.5752   -1.1921    0.5718 N   0  0  0  0  0  0  0  0  0  0  0  0
  2  1  1  6
  2  3  1  0
  2  4  1  0
  4  5  1  0
  5  6  2  0
  5  7  1  0
  7  8  1  0
  8  9  1  0
  9 10  1  0
 10 11  1  0
 11 12  1  0
 12 13  1  0
 13 14  1  0
 13 15  2  0
 17 16  1  1
 17 18  1  0
 18 19  1  0
 19 20  1  0
 20 21  2  0
 21 22  1  0
 22 23  2  0
 17 24  1  0
 24 25  1  0
 25 26  2  0
 26 27  1  0
 27 28  2  0
 28 29  1  0
 29 30  2  0
 30 31  1  0
 31 32  1  0
 32 33  2  0
 33 34  1  0
 34 35  2  0
 35 36  1  0
 35 37  1  0
 37 38  2  0
 38 39  1  0
 30 40  1  0
 40 41  2  0
 40 42  1  0
 42 43  1  0
 42 44  1  0
 44 45  2  0
 23 19  1  0
 45 25  1  0
 44 28  1  0
 38 32  1  0
M  CHG  1  15   1
M  END

