
     RDKit          3D

 17 17  0  0  0  0  0  0  0  0999 V2000
   -6.0272   -0.3005   -2.4890 N   0  0  0  0  0  0  0  0  0  0  0  0
   -4.6542   -0.1297   -2.1391 C   0  0  0  0  0  0  0  0  0  0  0  0
   -4.1461   -0.9546   -1.3557 O   0  0  0  0  0  0  0  0  0  0  0  0
   -3.8879    0.9911   -2.6989 C   0  0  0  0  0  0  0  0  0  0  0  0
   -2.4855    0.9545   -2.1866 C   0  0  0  0  0  0  0  0  0  0  0  0
   -1.7793   -0.3425   -2.5705 C   0  0  0  0  0  0  0  0  0  0  0  0
   -0.4250   -0.3359   -2.0547 N   0  0  0  0  0  0  0  0  0  0  0  0
   -0.1668   -0.2301   -0.6616 C   0  0  0  0  0  0  0  0  0  0  0  0
   -1.1542   -0.1423    0.1065 O   0  0  0  0  0  0  0  0  0  0  0  0
    1.1973   -0.2191   -0.0871 C   0  0  0  0  0  0  0  0  0  0  0  0
    1.0917   -0.0950    1.4153 C   0  0  0  0  0  0  0  0  0  0  0  0
    2.4751   -0.0870    1.9585 C   0  0  0  0  0  0  0  0  0  0  0  0
    3.1006    1.1397    2.0929 C   0  0  0  0  0  0  0  0  0  0  0  0
    4.3896    1.1372    2.6000 C   0  0  0  0  0  0  0  0  0  0  0  0
    5.0114   -0.0548    2.9529 C   0  0  0  0  0  0  0  0  0  0  0  0
    4.3743   -1.2559    2.8117 C   0  0  0  0  0  0  0  0  0  0  0  0
    3.0862   -1.2563    2.3052 C   0  0  0  0  0  0  0  0  0  0  0  0
  1  2  1  0
  2  3  2  0
  2  4  1  0
  4  5  1  0
  5  6  1  0
  6  7  1  0
  7  8  1  0
  8  9  2  0
  8 10  1  0
 10 11  1  0
 11 12  1  0
 12 13  2  0
 13 14  1  0
 14 15  2  0
 15 16  1  0
 16 17  2  0
 17 12  1  0
M  END

