
     RDKit          3D

 43 45  0  0  0  0  0  0  0  0999 V2000
   -4.2726    0.2153   -1.2020 C   0  0  0  0  0  0  0  0  0  0  0  0
   -4.1132   -0.3540    0.1865 C   0  0  0  0  0  0  0  0  0  0  0  0
   -4.0108   -1.8571    0.1595 C   0  0  0  0  0  0  0  0  0  0  0  0
   -2.9727    0.2940    0.9183 C   0  0  0  0  0  0  0  0  0  0  0  0
   -1.6757    0.0906    0.1977 C   0  0  0  0  0  0  0  0  0  0  0  0
   -1.6097   -0.5529   -0.8848 O   0  0  0  0  0  0  0  0  0  0  0  0
   -0.4921    0.6236    0.7273 N   0  0  0  0  0  0  0  0  0  0  0  0
    0.8109    0.4808    0.1052 C   0  0  0  0  0  0  0  0  0  0  0  0
    1.8253    1.1984    0.9899 C   0  0  0  0  0  0  0  0  0  0  0  0
    3.2156    1.0829    0.3873 C   0  0  0  0  0  0  0  0  0  0  0  0
    3.5232   -0.4076    0.3098 C   0  0  0  0  0  0  0  0  0  0  0  0
    4.8732   -0.6879   -0.2688 C   0  0  0  0  0  0  0  0  0  0  0  0
    4.8986   -0.1259   -1.6254 N   0  0  0  0  0  4  0  0  0  0  0  0
    3.7080   -1.8048    1.1954 C   0  0  0  0  0  0  0  0  0  0  0  0
    4.3803   -0.8654   -0.0074 C   0  0  2  0  0  0  0  0  0  0  0  0
    5.6207   -0.3547    0.9922 C   0  0  0  0  0  0  0  0  0  0  0  0
    6.3318    0.5085    0.0633 N   0  0  0  0  0  0  0  0  0  0  0  0
    7.3022    0.2349   -0.7717 N   0  0  0  0  0  0  0  0  0  0  0  0
    7.6468    1.3436   -1.4277 C   0  0  0  0  0  0  0  0  0  0  0  0
    6.8538    2.3100   -0.9669 N   0  0  0  0  0  0  0  0  0  0  0  0
    6.0581    1.7903   -0.0604 N   0  0  0  0  0  0  0  0  0  0  0  0
    3.5198    0.4329    0.2762 N   0  0  0  0  0  0  0  0  0  0  0  0
    2.1507    0.3635    0.1779 C   0  0  0  0  0  0  0  0  0  0  0  0
    1.4115    1.4224    0.4069 N   0  0  0  0  0  0  0  0  0  0  0  0
    0.0491    1.3565    0.3099 C   0  0  0  0  0  0  0  0  0  0  0  0
   -0.5740    0.1790   -0.0298 C   0  0  0  0  0  0  0  0  0  0  0  0
   -1.9649    0.0778   -0.1376 C   0  0  0  0  0  0  0  0  0  0  0  0
   -2.4744   -1.1569   -0.4854 C   0  0  0  0  0  0  0  0  0  0  0  0
   -3.8592   -1.2868   -0.6002 O   0  0  0  0  0  0  0  0  0  0  0  0
   -4.7108   -0.2173   -0.3750 C   0  0  0  0  0  0  0  0  0  0  0  0
   -5.5652    0.2638   -1.3426 C   0  0  0  0  0  0  0  0  0  0  0  0
   -6.3941    1.3350   -1.0625 C   0  0  0  0  0  0  0  0  0  0  0  0
   -6.3699    1.9278    0.1880 C   0  0  0  0  0  0  0  0  0  0  0  0
   -7.1729    2.9754    0.4794 F   0  0  0  0  0  0  0  0  0  0  0  0
   -5.5267    1.4568    1.1508 C   0  0  0  0  0  0  0  0  0  0  0  0
   -4.6965    0.3822    0.8666 C   0  0  0  0  0  0  0  0  0  0  0  0
   -3.8578   -0.0943    1.8079 F   0  0  0  0  0  0  0  0  0  0  0  0
   -1.6671   -2.2262   -0.7132 C   0  0  0  0  0  0  0  0  0  0  0  0
   -2.1738   -3.3455   -1.0310 O   0  0  0  0  0  0  0  0  0  0  0  0
   -0.3426   -2.0724   -0.5957 N   0  0  0  0  0  0  0  0  0  0  0  0
    0.5102   -3.2331   -0.8443 C   0  0  0  0  0  0  0  0  0  0  0  0
    0.2382   -0.9048   -0.2610 C   0  0  0  0  0  0  0  0  0  0  0  0
    1.5687   -0.7980   -0.1553 N   0  0  0  0  0  0  0  0  0  0  0  0
  1  2  1  0
  2  3  1  0
  2  4  1  0
  4  5  1  0
  5  6  2  0
  5  7  1  0
  7  8  1  0
  8  9  1  0
  9 10  1  0
 10 11  1  0
 11 12  1  0
 12 13  1  0
 15 14  1  1
 15 16  1  0
 16 17  1  0
 17 18  1  0
 18 19  2  0
 19 20  1  0
 20 21  2  0
 15 22  1  0
 22 23  1  0
 23 24  2  0
 24 25  1  0
 25 26  2  0
 26 27  1  0
 27 28  2  0
 28 29  1  0
 29 30  1  0
 30 31  2  0
 31 32  1  0
 32 33  2  0
 33 34  1  0
 33 35  1  0
 35 36  2  0
 36 37  1  0
 28 38  1  0
 38 39  2  0
 38 40  1  0
 40 41  1  0
 40 42  1  0
 42 43  2  0
 21 17  1  0
 43 23  1  0
 42 26  1  0
 36 30  1  0
M  CHG  1  13   1
M  END

