
     RDKit          3D

 47 50  0  0  0  0  0  0  0  0999 V2000
    5.9793    0.1579   -1.9525 C   0  0  0  0  0  0  0  0  0  0  0  0
    4.8637    0.6477   -0.8348 C   0  0  2  0  0  0  0  0  0  0  0  0
    5.1721   -0.6583    0.1398 C   0  0  0  0  0  0  0  0  0  0  0  0
    6.5816   -0.4875    0.4404 N   0  0  0  0  0  0  0  0  0  0  0  0
    7.6453   -0.9360   -0.1943 N   0  0  0  0  0  0  0  0  0  0  0  0
    8.6990   -0.4880    0.5084 C   0  0  0  0  0  0  0  0  0  0  0  0
    8.2677    0.2312    1.5675 N   0  0  0  0  0  0  0  0  0  0  0  0
    6.9554    0.2174    1.5043 N   0  0  0  0  0  0  0  0  0  0  0  0
    3.6811   -0.0833   -1.5599 N   0  0  0  0  0  0  0  0  0  0  0  0
    2.4274    0.0897   -0.8804 C   0  0  0  0  0  0  0  0  0  0  0  0
    2.2913    0.8022    0.2529 N   0  0  0  0  0  0  0  0  0  0  0  0
    1.1061    0.9518    0.8739 C   0  0  0  0  0  0  0  0  0  0  0  0
   -0.0356    0.3679    0.3600 C   0  0  0  0  0  0  0  0  0  0  0  0
   -1.2662    0.4617    0.9099 C   0  0  0  0  0  0  0  0  0  0  0  0
   -2.3986   -0.1760    0.3102 C   0  0  0  0  0  0  0  0  0  0  0  0
   -3.5806   -0.0648    0.8734 O   0  0  0  0  0  0  0  0  0  0  0  0
   -4.8354    0.3446    0.8474 C   0  0  0  0  0  0  0  0  0  0  0  0
   -5.1348    1.3250    1.8631 C   0  0  0  0  0  0  0  0  0  0  0  0
   -6.3985    1.8230    1.9360 C   0  0  0  0  0  0  0  0  0  0  0  0
   -7.4195    1.4543    1.1024 C   0  0  0  0  0  0  0  0  0  0  0  0
   -8.6538    1.9827    1.2194 F   0  0  0  0  0  0  0  0  0  0  0  0
   -7.1323    0.5260    0.1434 C   0  0  0  0  0  0  0  0  0  0  0  0
   -5.8470   -0.0231    0.0203 C   0  0  0  0  0  0  0  0  0  0  0  0
   -5.6852   -0.9333   -0.9352 F   0  0  0  0  0  0  0  0  0  0  0  0
   -2.1212   -0.8691   -0.8384 C   0  0  0  0  0  0  0  0  0  0  0  0
   -3.0393   -1.4946   -1.4834 O   0  0  0  0  0  0  0  0  0  0  0  0
   -0.8786   -0.9526   -1.3773 N   0  0  0  0  0  0  0  0  0  0  0  0
   -0.7300   -1.7331   -2.6181 C   0  0  0  0  0  0  0  0  0  0  0  0
    0.1435   -0.3535   -0.8012 C   0  0  0  0  0  0  0  0  0  0  0  0
    1.3431   -0.4835   -1.3971 N   0  0  0  0  0  0  0  0  0  0  0  0
    5.3343    0.6610    1.0512 N   0  0  0  0  0  0  0  0  0  0  0  0
    4.6871   -0.3404    0.2962 C   0  0  0  0  0  0  0  0  0  0  0  0
    5.0592   -0.5770   -0.8741 O   0  0  0  0  0  0  0  0  0  0  0  0
    3.5542   -1.1494    0.8390 C   0  0  0  0  0  0  0  0  0  0  0  0
    3.0517   -2.1368   -0.1618 C   0  0  0  0  0  0  0  0  0  0  0  0
    2.5442   -1.4712   -1.4339 C   0  0  0  0  0  0  0  0  0  0  0  0
    1.4603   -0.5788   -1.1029 N   0  0  0  0  0  0  0  0  0  0  0  0
    0.2575   -1.0027   -0.4862 C   0  0  0  0  0  0  0  0  0  0  0  0
    0.1415   -2.2204   -0.2192 O   0  0  0  0  0  0  0  0  0  0  0  0
   -0.7812    0.0109   -0.1970 C   0  0  0  0  0  0  0  0  0  0  0  0
   -1.9953   -0.5725    0.4529 C   0  0  0  0  0  0  0  0  0  0  0  0
   -2.9592    0.5336    0.6922 C   0  0  0  0  0  0  0  0  0  0  0  0
   -2.9868    1.2740    1.8354 C   0  0  0  0  0  0  0  0  0  0  0  0
   -3.8916    2.2946    2.0316 C   0  0  0  0  0  0  0  0  0  0  0  0
   -4.8096    2.5937    1.0498 C   0  0  0  0  0  0  0  0  0  0  0  0
   -4.7878    1.8503   -0.1075 C   0  0  0  0  0  0  0  0  0  0  0  0
   -3.8785    0.8310   -0.2944 C   0  0  0  0  0  0  0  0  0  0  0  0
  2  1  1  6
  2  3  1  0
  3  4  1  0
  4  5  1  0
  5  6  2  0
  6  7  1  0
  7  8  2  0
  2  9  1  0
  9 10  1  0
 10 11  2  0
 11 12  1  0
 12 13  2  0
 13 14  1  0
 14 15  2  0
 15 16  1  0
 16 17  1  0
 17 18  2  0
 18 19  1  0
 19 20  2  0
 20 21  1  0
 20 22  1  0
 22 23  2  0
 23 24  1  0
 15 25  1  0
 25 26  2  0
 25 27  1  0
 27 28  1  0
 27 29  1  0
 29 30  2  0
 31 32  1  0
 32 33  2  0
 32 34  1  0
 34 35  1  0
 35 36  1  0
 36 37  1  0
 37 38  1  0
 38 39  2  0
 38 40  1  0
 40 41  1  0
 41 42  1  0
 42 43  2  0
 43 44  1  0
 44 45  2  0
 45 46  1  0
 46 47  2  0
  8  4  1  0
 30 10  1  0
 47 42  1  0
 29 13  1  0
 23 17  1  0
M  END

