
     RDKit          3D

 44 47  0  0  0  0  0  0  0  0999 V2000
   -3.4974    1.8905    1.1997 C   0  0  0  0  0  0  0  0  0  0  0  0
   -4.3197    0.9187    0.1361 C   0  0  2  0  0  0  0  0  0  0  0  0
   -5.5899    0.7073    1.2130 C   0  0  0  0  0  0  0  0  0  0  0  0
   -6.5033   -0.1481    0.5040 N   0  0  0  0  0  0  0  0  0  0  0  0
   -6.5131   -1.4639    0.5245 N   0  0  0  0  0  0  0  0  0  0  0  0
   -7.4934   -1.9502   -0.2457 C   0  0  0  0  0  0  0  0  0  0  0  0
   -8.1074   -0.8666   -0.7579 N   0  0  0  0  0  0  0  0  0  0  0  0
   -7.4967    0.2028   -0.2946 N   0  0  0  0  0  0  0  0  0  0  0  0
   -3.5899   -0.3922    0.6352 N   0  0  0  0  0  0  0  0  0  0  0  0
   -2.1785   -0.3712    0.4819 C   0  0  0  0  0  0  0  0  0  0  0  0
   -1.3983   -1.4073    0.8557 N   0  0  0  0  0  0  0  0  0  0  0  0
   -0.0609   -1.4091    0.7199 C   0  0  0  0  0  0  0  0  0  0  0  0
    0.5186   -0.2780    0.1658 C   0  0  0  0  0  0  0  0  0  0  0  0
    1.9050   -0.2550    0.0142 C   0  0  0  0  0  0  0  0  0  0  0  0
    2.4345    0.9046   -0.5473 C   0  0  0  0  0  0  0  0  0  0  0  0
    3.7937    1.0071   -0.7309 O   0  0  0  0  0  0  0  0  0  0  0  0
    4.6385   -0.0090   -0.3726 C   0  0  0  0  0  0  0  0  0  0  0  0
    4.1262   -1.1739    0.1894 C   0  0  0  0  0  0  0  0  0  0  0  0
    4.9197   -2.2293    0.5701 C   0  0  0  0  0  0  0  0  0  0  0  0
    6.2915   -2.1413    0.3916 C   0  0  0  0  0  0  0  0  0  0  0  0
    7.1210   -3.1437    0.7454 F   0  0  0  0  0  0  0  0  0  0  0  0
    6.8072   -0.9876   -0.1658 C   0  0  0  0  0  0  0  0  0  0  0  0
    6.0043    0.0787   -0.5504 C   0  0  0  0  0  0  0  0  0  0  0  0
    6.5201    1.2100   -1.0980 F   0  0  0  0  0  0  0  0  0  0  0  0
    1.6376    1.9549   -0.9254 C   0  0  0  0  0  0  0  0  0  0  0  0
    2.1160    3.0014   -1.4322 O   0  0  0  0  0  0  0  0  0  0  0  0
    0.3041    1.8835   -0.7581 N   0  0  0  0  0  0  0  0  0  0  0  0
   -0.5580    2.9785   -1.1492 C   0  0  0  0  0  0  0  0  0  0  0  0
   -0.2558    0.7958   -0.2250 C   0  0  0  0  0  0  0  0  0  0  0  0
   -1.5757    0.6925   -0.0450 N   0  0  0  0  0  0  0  0  0  0  0  0
    4.3967    1.2513    0.0888 O   0  0  0  0  0  1  0  0  0  0  0  0
    3.6989    0.1090    0.4096 C   0  0  0  0  0  0  0  0  0  0  0  0
    3.9966   -0.9710   -0.1392 O   0  0  0  0  0  0  0  0  0  0  0  0
    2.6082    0.1862    1.4003 C   0  0  0  0  0  0  0  0  0  0  0  0
    1.3028    0.2474    0.6789 C   0  0  0  0  0  0  0  0  0  0  0  0
    1.1071   -0.9915   -0.1877 C   0  0  0  0  0  0  0  0  0  0  0  0
   -0.1727   -0.8226   -0.8316 N   0  0  0  0  0  0  0  0  0  0  0  0
   -1.3189   -0.6988   -0.0442 C   0  0  0  0  0  0  0  0  0  0  0  0
   -1.2245   -0.7344    1.1416 O   0  0  0  0  0  0  0  0  0  0  0  0
   -2.6187   -0.5232   -0.9019 C   0  0  2  0  0  0  0  0  0  0  0  0
   -2.4542    1.1134   -1.0771 C   0  0  0  0  0  0  0  0  0  0  0  0
   -2.2409    1.4889    0.3780 C   0  0  0  0  0  0  0  0  0  0  0  0
   -3.4287    0.7689    0.9077 C   0  0  0  0  0  0  0  0  0  0  0  0
   -3.6517   -0.4236    0.2592 N   0  0  0  0  0  0  0  0  0  0  0  0
  2  1  1  1
  2  3  1  0
  3  4  1  0
  4  5  1  0
  5  6  2  0
  6  7  1  0
  7  8  2  0
  2  9  1  0
  9 10  1  0
 10 11  2  0
 11 12  1  0
 12 13  2  0
 13 14  1  0
 14 15  2  0
 15 16  1  0
 16 17  1  0
 17 18  2  0
 18 19  1  0
 19 20  2  0
 20 21  1  0
 20 22  1  0
 22 23  2  0
 23 24  1  0
 15 25  1  0
 25 26  2  0
 25 27  1  0
 27 28  1  0
 27 29  1  0
 29 30  2  0
 31 32  1  0
 32 33  2  0
 32 34  1  0
 34 35  1  0
 35 36  1  0
 36 37  1  0
 37 38  1  0
 38 39  2  0
 40 38  1  1
 40 41  1  0
 41 42  1  0
 42 43  1  0
 43 44  1  0
  8  4  1  0
 30 10  1  0
 44 40  1  0
 29 13  1  0
 23 17  1  0
M  RAD  1  31   2
M  END

