
     RDKit          3D

 13 12  0  0  0  0  0  0  0  0999 V2000
   -4.0829   -0.1029    2.6779 N   0  0  0  0  0  0  0  0  0  0  0  0
   -3.1601   -0.4760    1.6600 C   0  0  0  0  0  0  0  0  0  0  0  0
   -2.9473    0.3983    0.7624 O   0  0  0  0  0  0  0  0  0  0  0  0
   -2.4912   -1.8009    1.6500 C   0  0  0  0  0  0  0  0  0  0  0  0
   -1.5886   -1.8458    0.4342 C   0  0  0  0  0  0  0  0  0  0  0  0
   -0.6251   -0.7728    0.5584 N   0  0  0  0  0  0  0  0  0  0  0  0
    0.3368   -0.6185   -0.4808 C   0  0  0  0  0  0  0  0  0  0  0  0
    0.3115   -1.4204   -1.4659 O   0  0  0  0  0  0  0  0  0  0  0  0
    1.3145    0.4644   -0.3622 C   0  0  0  0  0  0  0  0  0  0  0  0
    2.2473    0.4783   -1.5428 C   0  0  0  0  0  0  0  0  0  0  0  0
    3.2503    1.5737   -1.4407 C   0  0  0  0  0  0  0  0  0  0  0  0
    4.2331    1.8030   -2.4116 N   0  0  0  0  0  0  0  0  0  0  0  0
    3.2018    2.3196   -0.4321 O   0  0  0  0  0  0  0  0  0  0  0  0
  1  2  1  0
  2  3  2  0
  2  4  1  0
  4  5  1  0
  5  6  1  0
  6  7  1  0
  7  8  2  0
  7  9  1  0
  9 10  1  0
 10 11  1  0
 11 12  1  0
 11 13  2  0
M  END

