
     RDKit          3D

 44 46  0  0  0  0  0  0  0  0999 V2000
   -5.8565   -0.3405   -3.4036 C   0  0  0  0  0  0  0  0  0  0  0  0
   -5.0618   -0.7858   -1.9728 C   0  0  2  0  0  0  0  0  0  0  0  0
   -5.6159    0.5901   -1.2372 C   0  0  0  0  0  0  0  0  0  0  0  0
   -5.0524    0.4585    0.0869 N   0  0  0  0  0  0  0  0  0  0  0  0
   -5.5720   -0.1611    1.1410 N   0  0  0  0  0  0  0  0  0  0  0  0
   -4.7411   -0.0143    2.1778 C   0  0  0  0  0  0  0  0  0  0  0  0
   -3.7009    0.6978    1.7720 N   0  0  0  0  0  0  0  0  0  0  0  0
   -3.9092    0.9743    0.5016 N   0  0  0  0  0  0  0  0  0  0  0  0
   -3.7161   -0.1202   -2.4531 N   0  0  0  0  0  0  0  0  0  0  0  0
   -2.5704   -0.5842   -1.7417 C   0  0  0  0  0  0  0  0  0  0  0  0
   -2.5661   -1.4948   -0.7800 N   0  0  0  0  0  0  0  0  0  0  0  0
   -1.4582   -1.8952   -0.1429 C   0  0  0  0  0  0  0  0  0  0  0  0
   -0.2658   -1.3169   -0.5221 C   0  0  0  0  0  0  0  0  0  0  0  0
    0.8841   -1.7173    0.1231 C   0  0  0  0  0  0  0  0  0  0  0  0
    2.1205   -1.1600   -0.2255 C   0  0  0  0  0  0  0  0  0  0  0  0
    3.2293   -1.5874    0.4403 O   0  0  0  0  0  0  0  0  0  0  0  0
    4.0427   -0.7347    1.1826 C   0  0  0  0  0  0  0  0  0  0  0  0
    5.3837   -0.6040    0.8303 C   0  0  0  0  0  0  0  0  0  0  0  0
    6.1973    0.2340    1.5545 C   0  0  0  0  0  0  0  0  0  0  0  0
    5.7417    0.9723    2.6418 C   0  0  0  0  0  0  0  0  0  0  0  0
    6.5928    1.7726    3.3050 F   0  0  0  0  0  0  0  0  0  0  0  0
    4.4089    0.8199    2.9641 C   0  0  0  0  0  0  0  0  0  0  0  0
    3.5643   -0.0131    2.2581 C   0  0  0  0  0  0  0  0  0  0  0  0
    2.2566   -0.1500    2.5899 F   0  0  0  0  0  0  0  0  0  0  0  0
    2.1069   -0.2116   -1.2289 C   0  0  0  0  0  0  0  0  0  0  0  0
    3.2230    0.2895   -1.5414 O   0  0  0  0  0  0  0  0  0  0  0  0
    0.9533    0.1499   -1.8338 N   0  0  0  0  0  0  0  0  0  0  0  0
    1.0173    1.1451   -2.8715 C   0  0  0  0  0  0  0  0  0  0  0  0
   -0.2398   -0.3661   -1.5203 C   0  0  0  0  0  0  0  0  0  0  0  0
   -1.3961   -0.0347   -2.0940 N   0  0  0  0  0  0  0  0  0  0  0  0
    4.0168   -1.0626   -0.4665 O   0  0  0  0  0  1  0  0  0  0  0  0
    4.0203    0.3120   -0.3918 C   0  0  0  0  0  0  0  0  0  0  0  0
    5.1227    0.8999   -0.2845 O   0  0  0  0  0  0  0  0  0  0  0  0
    2.7981    1.1280   -0.4313 C   0  0  0  0  0  0  0  0  0  0  0  0
    1.5447    0.3329   -0.5600 C   0  0  0  0  0  0  0  0  0  0  0  0
    1.3277   -0.6361    0.5748 C   0  0  0  0  0  0  0  0  0  0  0  0
    0.0831   -1.3395    0.3271 N   0  0  0  0  0  0  0  0  0  0  0  0
   -1.1587   -0.6587    0.2167 C   0  0  0  0  0  0  0  0  0  0  0  0
   -1.2223    0.5902    0.3311 O   0  0  0  0  0  0  0  0  0  0  0  0
   -2.4181   -1.4349   -0.0404 C   0  0  0  0  0  0  0  0  0  0  0  0
   -3.6076   -0.5256   -0.1207 C   0  0  0  0  0  0  0  0  0  0  0  0
   -3.4820    0.4746   -1.2103 C   0  0  0  0  0  0  0  0  0  0  0  0
   -4.5301    1.3689   -1.3743 O   0  0  0  0  0  1  0  0  0  0  0  0
   -2.4946    0.5509   -1.9761 O   0  0  0  0  0  0  0  0  0  0  0  0
  2  1  1  6
  2  3  1  0
  3  4  1  0
  4  5  1  0
  5  6  2  0
  6  7  1  0
  7  8  2  0
  2  9  1  0
  9 10  1  0
 10 11  2  0
 11 12  1  0
 12 13  2  0
 13 14  1  0
 14 15  2  0
 15 16  1  0
 16 17  1  0
 17 18  2  0
 18 19  1  0
 19 20  2  0
 20 21  1  0
 20 22  1  0
 22 23  2  0
 23 24  1  0
 15 25  1  0
 25 26  2  0
 25 27  1  0
 27 28  1  0
 27 29  1  0
 29 30  2  0
 31 32  1  0
 32 33  2  0
 32 34  1  0
 34 35  1  0
 35 36  1  0
 36 37  1  0
 37 38  1  0
 38 39  2  0
 38 40  1  0
 40 41  1  0
 41 42  1  0
 42 43  1  0
 42 44  2  0
  8  4  1  0
 30 10  1  0
 29 13  1  0
 23 17  1  0
M  RAD  2  31   2  43   2
M  END

