
     RDKit          3D

 11 10  0  0  0  0  0  0  0  0999 V2000
   -4.0885   -0.0468    0.1473 C   0  0  0  0  0  0  0  0  0  0  0  0
   -2.6454    0.4174   -0.0487 C   0  0  0  0  0  0  0  0  0  0  0  0
   -2.6084    1.8155   -0.6459 C   0  0  0  0  0  0  0  0  0  0  0  0
   -2.0217   -0.5257   -1.0471 C   0  0  0  0  0  0  0  0  0  0  0  0
   -0.6083   -0.1234   -1.2809 C   0  0  0  0  0  0  0  0  0  0  0  0
    0.2059   -0.1655   -0.0136 C   0  0  0  0  0  0  0  0  0  0  0  0
   -0.3134   -0.5099    1.0787 O   0  0  0  0  0  0  0  0  0  0  0  0
    1.5823    0.1820   -0.0149 N   0  0  0  0  0  0  0  0  0  0  0  0
    2.3882    0.1497    1.1919 C   0  0  0  0  0  0  0  0  0  0  0  0
    3.8042    0.5842    0.7967 C   0  0  0  0  0  0  0  0  0  0  0  0
    4.3050   -0.3073   -0.1636 O   0  0  0  0  0  0  0  0  0  0  0  0
  1  2  1  0
  2  3  1  0
  2  4  1  0
  4  5  1  0
  5  6  1  0
  6  7  2  0
  6  8  1  0
  8  9  1  0
  9 10  1  0
 10 11  1  0
M  END

