
     RDKit          3D

 17 16  0  0  0  0  0  0  0  0999 V2000
   -5.2745   -0.4232    2.4489 N   0  0  0  0  0  0  0  0  0  0  0  0
   -4.8082    0.4562    1.4073 C   0  0  0  0  0  0  0  0  0  0  0  0
   -5.1240    1.7010    1.4238 N   0  0  0  0  0  4  0  0  0  0  0  0
   -3.9948   -0.0242    0.3445 N   0  0  0  0  0  0  0  0  0  0  0  0
   -3.5211    0.8748   -0.7156 C   0  0  0  0  0  0  0  0  0  0  0  0
   -2.6862    0.0249   -1.6727 C   0  0  0  0  0  0  0  0  0  0  0  0
   -1.5435   -0.5382   -0.8183 C   0  0  0  0  0  0  0  0  0  0  0  0
   -0.7952    0.6797   -0.2850 C   0  0  0  0  0  0  0  0  0  0  0  0
    0.3169    0.3078    0.5437 N   0  0  0  0  0  0  0  0  0  0  0  0
    1.3519   -0.4842   -0.0183 C   0  0  0  0  0  0  0  0  0  0  0  0
    1.2646   -0.8344   -1.2176 O   0  0  0  0  0  0  0  0  0  0  0  0
    2.5041   -0.8762    0.8203 C   0  0  0  0  0  0  0  0  0  0  0  0
    3.4869   -1.7100    0.0428 C   0  0  0  0  0  0  0  0  0  0  0  0
    4.0326   -0.9760   -1.1444 C   0  0  0  0  0  0  0  0  0  0  0  0
    4.7207    0.2433   -0.6810 C   0  0  0  0  0  0  0  0  0  0  0  0
    5.3037    1.0768   -1.6184 O   0  0  0  0  0  1  0  0  0  0  0  0
    4.7661    0.5019    0.5379 O   0  0  0  0  0  0  0  0  0  0  0  0
  1  2  1  0
  2  3  2  0
  2  4  1  0
  4  5  1  0
  5  6  1  0
  6  7  1  0
  7  8  1  0
  8  9  1  0
  9 10  1  0
 10 11  2  0
 10 12  1  0
 12 13  1  0
 13 14  1  0
 14 15  1  0
 15 16  1  0
 15 17  2  0
M  CHG  1   3   1
M  RAD  1  16   2
M  END

