
     RDKit          3D

 42 44  0  0  0  0  0  0  0  0999 V2000
   -3.7783    0.0634   -0.7193 C   0  0  0  0  0  0  0  0  0  0  0  0
   -3.1876   -0.6280    0.4978 C   0  0  0  0  0  0  0  0  0  0  0  0
   -3.1643    0.3135    1.6716 C   0  0  0  0  0  0  0  0  0  0  0  0
   -1.8030   -1.1606    0.2205 C   0  0  0  0  0  0  0  0  0  0  0  0
   -0.9423    0.0185   -0.1545 C   0  0  0  0  0  0  0  0  0  0  0  0
   -1.3905    1.1868   -0.1319 O   0  0  0  0  0  0  0  0  0  0  0  0
    0.4003   -0.1390   -0.5536 N   0  0  0  0  0  0  0  0  0  0  0  0
    1.2216    1.0189   -0.9265 C   0  0  0  0  0  0  0  0  0  0  0  0
    2.5751    0.5052   -1.3265 C   0  0  0  0  0  0  0  0  0  0  0  0
    3.1731   -0.1932   -0.1602 C   0  0  0  0  0  0  0  0  0  0  0  0
    2.8628   -1.4804    0.2284 O   0  0  0  0  0  1  0  0  0  0  0  0
    4.0330    0.4949    0.4969 O   0  0  0  0  0  0  0  0  0  0  0  0
    4.3457    0.2129    1.8540 C   0  0  0  0  0  0  0  0  0  0  0  0
    4.6781   -1.3321    1.3442 C   0  0  2  0  0  0  0  0  0  0  0  0
    4.1712   -1.0376   -0.2025 C   0  0  0  0  0  0  0  0  0  0  0  0
    5.0997    0.0334   -0.5482 N   0  0  0  0  0  0  0  0  0  0  0  0
    4.8304    1.3085   -0.3366 N   0  0  0  0  0  0  0  0  0  0  0  0
    5.8881    2.0451   -0.7644 C   0  0  0  0  0  0  0  0  0  0  0  0
    6.7983    1.1829   -1.2375 N   0  0  0  0  0  0  0  0  0  0  0  0
    6.2948   -0.0368   -1.0949 N   0  0  0  0  0  0  0  0  0  0  0  0
    3.3151   -1.9691    1.7926 N   0  0  0  0  0  0  0  0  0  0  0  0
    2.1102   -1.5122    1.3239 C   0  0  0  0  0  0  0  0  0  0  0  0
    1.0074   -2.1346    1.7777 N   0  0  0  0  0  0  0  0  0  0  0  0
   -0.2288   -1.8089    1.4179 C   0  0  0  0  0  0  0  0  0  0  0  0
   -0.4303   -0.7874    0.5374 C   0  0  0  0  0  0  0  0  0  0  0  0
   -1.7110   -0.4020    0.1239 C   0  0  0  0  0  0  0  0  0  0  0  0
   -1.8725    0.6374   -0.7691 C   0  0  0  0  0  0  0  0  0  0  0  0
   -3.1000    1.0616   -1.2120 O   0  0  0  0  0  0  0  0  0  0  0  0
   -4.2901    0.4802   -0.7989 C   0  0  0  0  0  0  0  0  0  0  0  0
   -5.1391   -0.0990   -1.7240 C   0  0  0  0  0  0  0  0  0  0  0  0
   -6.3097   -0.6672   -1.2899 C   0  0  0  0  0  0  0  0  0  0  0  0
   -6.6756   -0.6827    0.0487 C   0  0  0  0  0  0  0  0  0  0  0  0
   -7.8419   -1.2534    0.4472 F   0  0  0  0  0  0  0  0  0  0  0  0
   -5.8027   -0.0930    0.9573 C   0  0  0  0  0  0  0  0  0  0  0  0
   -4.6137    0.4876    0.5420 C   0  0  0  0  0  0  0  0  0  0  0  0
   -3.7436    1.0680    1.3928 F   0  0  0  0  0  0  0  0  0  0  0  0
   -0.7413    1.2765   -1.2352 C   0  0  0  0  0  0  0  0  0  0  0  0
   -0.8037    2.2192   -2.0395 O   0  0  0  0  0  0  0  0  0  0  0  0
    0.4970    0.8787   -0.8141 N   0  0  0  0  0  0  0  0  0  0  0  0
    1.6874    1.5511   -1.3045 C   0  0  0  0  0  0  0  0  0  0  0  0
    0.6691   -0.1282    0.0521 C   0  0  0  0  0  0  0  0  0  0  0  0
    1.9114   -0.4988    0.4504 N   0  0  0  0  0  0  0  0  0  0  0  0
  1  2  1  0
  2  3  1  0
  2  4  1  0
  4  5  1  0
  5  6  2  0
  5  7  1  0
  7  8  1  0
  8  9  1  0
  9 10  1  0
 10 11  1  0
 10 12  2  0
 14 13  1  1
 14 15  1  0
 15 16  1  0
 16 17  1  0
 17 18  2  0
 18 19  1  0
 19 20  2  0
 14 21  1  0
 21 22  1  0
 22 23  2  0
 23 24  1  0
 24 25  2  0
 25 26  1  0
 26 27  2  0
 27 28  1  0
 28 29  1  0
 29 30  2  0
 30 31  1  0
 31 32  2  0
 32 33  1  0
 32 34  1  0
 34 35  2  0
 35 36  1  0
 27 37  1  0
 37 38  2  0
 37 39  1  0
 39 40  1  0
 39 41  1  0
 41 42  2  0
 20 16  1  0
 42 22  1  0
 41 25  1  0
 35 29  1  0
M  RAD  1  11   2
M  END

