
     RDKit          3D

 40 42  0  0  0  0  0  0  0  0999 V2000
    3.7865    0.0011   -0.6202 C   0  0  0  0  0  0  0  0  0  0  0  0
    3.0006    1.2499   -0.9165 C   0  0  0  0  0  0  0  0  0  0  0  0
    1.6035    0.9786   -1.1497 N   0  0  0  0  0  0  0  0  0  0  0  0
    0.8605    0.3639   -0.0996 C   0  0  0  0  0  0  0  0  0  0  0  0
    1.3407    0.0495    0.9983 O   0  0  0  0  0  0  0  0  0  0  0  0
   -0.5704    0.1021   -0.3786 C   0  0  0  0  0  0  0  0  0  0  0  0
   -1.1933   -0.5376    0.8125 C   0  0  0  0  0  0  0  0  0  0  0  0
   -2.6487   -0.8482    0.6394 C   0  0  0  0  0  0  0  0  0  0  0  0
   -2.8142   -1.8020   -0.5326 C   0  0  0  0  0  0  0  0  0  0  0  0
   -3.3652    0.4426    0.3153 C   0  0  0  0  0  0  0  0  0  0  0  0
   -3.6911   -1.9812    1.5758 C   0  0  0  0  0  0  0  0  0  0  0  0
   -4.2848   -0.4373    1.4130 C   0  0  2  0  0  0  0  0  0  0  0  0
   -5.8122   -1.0098    1.0347 C   0  0  0  0  0  0  0  0  0  0  0  0
   -6.5834    0.1953    0.8303 N   0  0  0  0  0  0  0  0  0  0  0  0
   -7.2727    0.8913    1.7079 N   0  0  0  0  0  0  0  0  0  0  0  0
   -7.8330    1.9386    1.0814 C   0  0  0  0  0  0  0  0  0  0  0  0
   -7.4850    1.8883   -0.1993 N   0  0  0  0  0  0  0  0  0  0  0  0
   -6.7200    0.8119   -0.3276 N   0  0  0  0  0  0  0  0  0  0  0  0
   -3.8862   -0.2644   -0.1094 N   0  0  0  0  0  0  0  0  0  0  0  0
   -2.5274   -0.3683   -0.4402 C   0  0  0  0  0  0  0  0  0  0  0  0
   -2.1926   -0.2220   -1.7266 N   0  0  0  0  0  0  0  0  0  0  0  0
   -0.9480   -0.2912   -2.2114 C   0  0  0  0  0  0  0  0  0  0  0  0
    0.0855   -0.5367   -1.2968 C   0  0  0  0  0  0  0  0  0  0  0  0
    1.3883   -0.6211   -1.7203 C   0  0  0  0  0  0  0  0  0  0  0  0
    2.3593   -0.8633   -0.7799 C   0  0  0  0  0  0  0  0  0  0  0  0
    3.6655   -0.9472   -1.2101 O   0  0  0  0  0  0  0  0  0  0  0  0
    4.6652   -0.0919   -0.7515 C   0  0  0  0  0  0  0  0  0  0  0  0
    4.3323    0.8630    0.1578 C   0  0  0  0  0  0  0  0  0  0  0  0
    5.3118    1.7226    0.6254 C   0  0  0  0  0  0  0  0  0  0  0  0
    6.5992    1.6025    0.1695 C   0  0  0  0  0  0  0  0  0  0  0  0
    7.6127    2.4210    0.5926 F   0  0  0  0  0  0  0  0  0  0  0  0
    6.8989    0.6343   -0.7422 C   0  0  0  0  0  0  0  0  0  0  0  0
    5.9433   -0.2516   -1.2389 C   0  0  0  0  0  0  0  0  0  0  0  0
    6.2264   -1.2093   -2.1370 F   0  0  0  0  0  0  0  0  0  0  0  0
    2.0007   -1.0135    0.5520 C   0  0  0  0  0  0  0  0  0  0  0  0
    2.8847   -1.2328    1.3994 O   0  0  0  0  0  0  0  0  0  0  0  0
    0.7290   -0.9280    0.9435 N   0  0  0  0  0  0  0  0  0  0  0  0
    0.3153   -1.0810    2.3386 C   0  0  0  0  0  0  0  0  0  0  0  0
   -0.2392   -0.6901    0.0314 C   0  0  0  0  0  0  0  0  0  0  0  0
   -1.5425   -0.6032    0.4379 N   0  0  0  0  0  0  0  0  0  0  0  0
  1  2  1  0
  2  3  1  0
  3  4  1  0
  4  5  2  0
  4  6  1  0
  6  7  1  0
  7  8  1  0
  8  9  1  0
  8 10  1  0
 12 11  1  6
 12 13  1  0
 13 14  1  0
 14 15  1  0
 15 16  2  0
 16 17  1  0
 17 18  2  0
 12 19  1  0
 19 20  1  0
 20 21  2  0
 21 22  1  0
 22 23  2  0
 23 24  1  0
 24 25  2  0
 25 26  1  0
 26 27  1  0
 27 28  2  0
 28 29  1  0
 29 30  2  0
 30 31  1  0
 30 32  1  0
 32 33  2  0
 33 34  1  0
 25 35  1  0
 35 36  2  0
 35 37  1  0
 37 38  1  0
 37 39  1  0
 39 40  2  0
 18 14  1  0
 40 20  1  0
 39 23  1  0
 33 27  1  0
M  END

