
     RDKit          3D

 39 41  0  0  0  0  0  0  0  0999 V2000
    3.7847   -0.7147   -0.9094 C   0  0  0  0  0  0  0  0  0  0  0  0
    2.6694   -0.2443   -0.0309 C   0  0  0  0  0  0  0  0  0  0  0  0
    1.3889   -0.4070   -0.6981 N   0  0  0  0  0  0  0  0  0  0  0  0
    0.1746   -0.0326   -0.0701 C   0  0  0  0  0  0  0  0  0  0  0  0
    0.2001    0.4519    1.0910 O   0  0  0  0  0  0  0  0  0  0  0  0
   -1.1007   -0.2330   -0.8260 C   0  0  0  0  0  0  0  0  0  0  0  0
   -2.2925    0.2081   -0.0333 C   0  0  0  0  0  0  0  0  0  0  0  0
   -2.2424    1.6637    0.3377 C   0  0  0  0  0  0  0  0  0  0  0  0
   -2.5821   -0.6921    1.1391 C   0  0  0  0  0  0  0  0  0  0  0  0
    4.4576    0.9246   -2.2302 C   0  0  0  0  0  0  0  0  0  0  0  0
    4.8485    0.8553   -0.6410 C   0  0  2  0  0  0  0  0  0  0  0  0
    6.0520   -0.2418   -0.8937 C   0  0  0  0  0  0  0  0  0  0  0  0
    6.5609   -0.4572    0.4467 N   0  0  0  0  0  0  0  0  0  0  0  0
    7.5292    0.2300    1.0137 N   0  0  0  0  0  0  0  0  0  0  0  0
    7.6736   -0.3033    2.2477 C   0  0  0  0  0  0  0  0  0  0  0  0
    6.7921   -1.3122    2.4246 N   0  0  0  0  0  0  0  0  0  0  0  0
    6.1100   -1.3822    1.2762 N   0  0  0  0  0  0  0  0  0  0  0  0
    3.7869   -0.2476   -0.3216 N   0  0  0  0  0  0  0  0  0  0  0  0
    2.4557    0.1137   -0.5934 C   0  0  0  0  0  0  0  0  0  0  0  0
    2.1334    1.3021   -1.0836 N   0  0  0  0  0  0  0  0  0  0  0  0
    0.8644    1.6339   -1.3379 C   0  0  0  0  0  0  0  0  0  0  0  0
   -0.1377    0.7273   -1.0883 C   0  0  0  0  0  0  0  0  0  0  0  0
   -1.4734    0.9751   -1.3168 C   0  0  0  0  0  0  0  0  0  0  0  0
   -2.4299    0.0430   -1.0528 C   0  0  0  0  0  0  0  0  0  0  0  0
   -3.7904    0.2830   -1.2808 O   0  0  0  0  0  0  0  0  0  0  0  0
   -4.6673    0.2133   -0.1921 C   0  0  0  0  0  0  0  0  0  0  0  0
   -4.2227   -0.0809    1.0697 C   0  0  0  0  0  0  0  0  0  0  0  0
   -5.1283   -0.1353    2.0971 C   0  0  0  0  0  0  0  0  0  0  0  0
   -6.4677    0.0998    1.8791 C   0  0  0  0  0  0  0  0  0  0  0  0
   -7.3187    0.0379    2.9042 F   0  0  0  0  0  0  0  0  0  0  0  0
   -6.9054    0.3936    0.6139 C   0  0  0  0  0  0  0  0  0  0  0  0
   -5.9972    0.4478   -0.4143 C   0  0  0  0  0  0  0  0  0  0  0  0
   -6.4448    0.7440   -1.6853 F   0  0  0  0  0  0  0  0  0  0  0  0
   -2.0341   -1.1861   -0.5396 C   0  0  0  0  0  0  0  0  0  0  0  0
   -2.8836   -2.0872   -0.2769 O   0  0  0  0  0  0  0  0  0  0  0  0
   -0.7401   -1.4197   -0.3207 N   0  0  0  0  0  0  0  0  0  0  0  0
   -0.3365   -2.7010    0.2134 C   0  0  0  0  0  0  0  0  0  0  0  0
    0.2157   -0.4941   -0.5823 C   0  0  0  0  0  0  0  0  0  0  0  0
    1.4977   -0.8047   -0.3349 N   0  0  0  0  0  0  0  0  0  0  0  0
  1  2  1  0
  2  3  1  0
  3  4  1  0
  4  5  2  0
  4  6  1  0
  6  7  1  0
  7  8  1  0
  7  9  1  0
 11 10  1  6
 11 12  1  0
 12 13  1  0
 13 14  1  0
 14 15  2  0
 15 16  1  0
 16 17  2  0
 11 18  1  0
 18 19  1  0
 19 20  2  0
 20 21  1  0
 21 22  2  0
 22 23  1  0
 23 24  2  0
 24 25  1  0
 25 26  1  0
 26 27  2  0
 27 28  1  0
 28 29  2  0
 29 30  1  0
 29 31  1  0
 31 32  2  0
 32 33  1  0
 24 34  1  0
 34 35  2  0
 34 36  1  0
 36 37  1  0
 36 38  1  0
 38 39  2  0
 17 13  1  0
 39 19  1  0
 38 22  1  0
 32 26  1  0
M  END

