
     RDKit          3D

 10  9  0  0  0  0  0  0  0  0999 V2000
    2.6254   -1.6827    1.0731 C   0  0  0  0  0  0  0  0  0  0  0  0
    2.6633   -0.2846    1.6295 C   0  0  0  0  0  0  0  0  0  0  0  0
    1.3553    0.3195    1.7324 N   0  0  0  0  0  0  0  0  0  0  0  0
    0.5693    0.4905    0.5664 C   0  0  0  0  0  0  0  0  0  0  0  0
    1.0395    0.1095   -0.5184 O   0  0  0  0  0  0  0  0  0  0  0  0
   -0.7525    1.0991    0.6582 C   0  0  0  0  0  0  0  0  0  0  0  0
   -1.4821    1.2259   -0.6288 C   0  0  0  0  0  0  0  0  0  0  0  0
   -1.7547   -0.0249   -1.3418 C   0  0  0  0  0  0  0  0  0  0  0  0
   -2.4661    0.0231   -2.6101 C   0  0  0  0  0  0  0  0  0  0  0  0
   -1.7974   -1.2754   -0.5605 C   0  0  0  0  0  0  0  0  0  0  0  0
  1  2  1  0
  2  3  1  0
  3  4  1  0
  4  5  2  0
  4  6  1  0
  6  7  1  0
  7  8  1  0
  8  9  1  0
  8 10  1  0
M  END

