
     RDKit          3D

 44 46  0  0  0  0  0  0  0  0999 V2000
    4.8462    1.8567    0.0551 C   0  0  0  0  0  0  0  0  0  0  0  0
    5.3764    0.2989   -0.7243 S   0  0  0  0  0  0  0  0  0  0  0  0
    4.3821   -1.0851   -0.1164 C   0  0  0  0  0  0  0  0  0  0  0  0
    2.9480   -0.9887   -0.5343 C   0  0  0  0  0  0  0  0  0  0  0  0
    2.3569    0.2785    0.0075 C   0  0  0  0  0  0  0  0  0  0  0  0
    0.9776    0.4728   -0.3362 N   0  0  0  0  0  0  0  0  0  0  0  0
   -0.0848   -0.3828   -0.0019 C   0  0  0  0  0  0  0  0  0  0  0  0
    0.1745   -1.4143    0.6552 O   0  0  0  0  0  0  0  0  0  0  0  0
   -1.4732   -0.0653   -0.4199 C   0  0  0  0  0  0  0  0  0  0  0  0
   -2.4598   -1.1015    0.0419 C   0  0  0  0  0  0  0  0  0  0  0  0
   -3.8619   -0.7508   -0.3983 C   0  0  0  0  0  0  0  0  0  0  0  0
   -4.2575    0.5491    0.1624 C   0  0  0  0  0  0  0  0  0  0  0  0
   -5.4926    1.1396   -0.0548 O   0  0  0  0  0  1  0  0  0  0  0  0
   -3.4318    1.1929    0.8976 O   0  0  0  0  0  0  0  0  0  0  0  0
    3.8886    1.6896   -1.2969 C   0  0  0  0  0  0  0  0  0  0  0  0
    4.4278    0.9042    0.0630 C   0  0  2  0  0  0  0  0  0  0  0  0
    5.9012    0.5706   -0.6581 C   0  0  0  0  0  0  0  0  0  0  0  0
    6.6091   -0.1516    0.3708 N   0  0  0  0  0  0  0  0  0  0  0  0
    6.6466   -1.4422    0.6095 N   0  0  0  0  0  0  0  0  0  0  0  0
    7.4456   -1.6545    1.6820 C   0  0  0  0  0  0  0  0  0  0  0  0
    7.8946   -0.4461    2.0894 N   0  0  0  0  0  0  0  0  0  0  0  0
    7.3680    0.4249    1.2750 N   0  0  0  0  0  0  0  0  0  0  0  0
    3.8441   -0.5046   -0.3397 N   0  0  0  0  0  0  0  0  0  0  0  0
    2.4501   -0.5886   -0.5261 C   0  0  0  0  0  0  0  0  0  0  0  0
    1.9727   -1.7960   -0.8685 N   0  0  0  0  0  0  0  0  0  0  0  0
    0.6688   -2.0414   -1.0823 C   0  0  0  0  0  0  0  0  0  0  0  0
   -0.2013   -0.9852   -0.9367 C   0  0  0  0  0  0  0  0  0  0  0  0
   -1.5403   -1.2050   -1.1486 C   0  0  0  0  0  0  0  0  0  0  0  0
   -2.4439   -0.1524   -1.0078 C   0  0  0  0  0  0  0  0  0  0  0  0
   -3.7866   -0.3862   -1.2234 O   0  0  0  0  0  0  0  0  0  0  0  0
   -4.6876   -0.1593   -0.1901 C   0  0  0  0  0  0  0  0  0  0  0  0
   -4.2765    0.2935    1.0463 C   0  0  0  0  0  0  0  0  0  0  0  0
   -5.1765    0.5168    2.0681 C   0  0  0  0  0  0  0  0  0  0  0  0
   -6.5295    0.3022    1.9151 C   0  0  0  0  0  0  0  0  0  0  0  0
   -7.4266    0.5170    2.9097 F   0  0  0  0  0  0  0  0  0  0  0  0
   -6.9474   -0.1512    0.6793 C   0  0  0  0  0  0  0  0  0  0  0  0
   -6.0423   -0.3730   -0.3397 C   0  0  0  0  0  0  0  0  0  0  0  0
   -6.4460   -0.8220   -1.5675 F   0  0  0  0  0  0  0  0  0  0  0  0
   -1.9436    1.0704   -0.6590 C   0  0  0  0  0  0  0  0  0  0  0  0
   -2.7323    2.0302   -0.5264 O   0  0  0  0  0  0  0  0  0  0  0  0
   -0.6203    1.2704   -0.4536 N   0  0  0  0  0  0  0  0  0  0  0  0
   -0.1451    2.5792   -0.0875 C   0  0  0  0  0  0  0  0  0  0  0  0
    0.2490    0.2653   -0.5873 C   0  0  0  0  0  0  0  0  0  0  0  0
    1.5795    0.4252   -0.3905 N   0  0  0  0  0  0  0  0  0  0  0  0
  1  2  1  0
  2  3  1  0
  3  4  1  0
  4  5  1  0
  5  6  1  0
  6  7  1  0
  7  8  2  0
  7  9  1  0
  9 10  1  0
 10 11  1  0
 11 12  1  0
 12 13  1  0
 12 14  2  0
 16 15  1  6
 16 17  1  0
 17 18  1  0
 18 19  1  0
 19 20  2  0
 20 21  1  0
 21 22  2  0
 16 23  1  0
 23 24  1  0
 24 25  2  0
 25 26  1  0
 26 27  2  0
 27 28  1  0
 28 29  2  0
 29 30  1  0
 30 31  1  0
 31 32  2  0
 32 33  1  0
 33 34  2  0
 34 35  1  0
 34 36  1  0
 36 37  2  0
 37 38  1  0
 29 39  1  0
 39 40  2  0
 39 41  1  0
 41 42  1  0
 41 43  1  0
 43 44  2  0
 22 18  1  0
 44 24  1  0
 43 27  1  0
 37 31  1  0
M  RAD  1  13   2
M  END

