
     RDKit          3D

 43 45  0  0  0  0  0  0  0  0999 V2000
   -4.4238    2.4839   -0.8107 C   0  0  0  0  0  0  0  0  0  0  0  0
   -4.8717    0.9161   -1.2032 C   0  0  2  0  0  0  0  0  0  0  0  0
   -6.1340    0.9632   -0.1238 C   0  0  0  0  0  0  0  0  0  0  0  0
   -6.7584   -0.3200   -0.2293 N   0  0  0  0  0  0  0  0  0  0  0  0
   -7.7339   -0.7042   -1.0240 N   0  0  0  0  0  0  0  0  0  0  0  0
   -8.0182   -1.9850   -0.8014 C   0  0  0  0  0  0  0  0  0  0  0  0
   -7.1767   -2.3873    0.1693 N   0  0  0  0  0  0  0  0  0  0  0  0
   -6.4289   -1.3701    0.4975 N   0  0  0  0  0  0  0  0  0  0  0  0
   -3.8826    0.2711   -0.1500 N   0  0  0  0  0  0  0  0  0  0  0  0
   -2.5114    0.5757   -0.3449 C   0  0  0  0  0  0  0  0  0  0  0  0
   -2.0484    1.3525   -1.3409 N   0  0  0  0  0  0  0  0  0  0  0  0
   -0.7049    1.5555   -1.4002 C   0  0  0  0  0  0  0  0  0  0  0  0
    0.1583    0.9847   -0.4702 C   0  0  0  0  0  0  0  0  0  0  0  0
    1.4953    1.1638   -0.4979 C   0  0  0  0  0  0  0  0  0  0  0  0
    2.3529    0.5658    0.4685 C   0  0  0  0  0  0  0  0  0  0  0  0
    3.6135    0.8396    0.3005 O   0  0  0  0  0  0  0  0  0  0  0  0
    4.8346    0.3383    0.0365 C   0  0  0  0  0  0  0  0  0  0  0  0
    5.4566    0.7588   -1.1834 C   0  0  0  0  0  0  0  0  0  0  0  0
    6.6868    0.3254   -1.5647 C   0  0  0  0  0  0  0  0  0  0  0  0
    7.4361   -0.5516   -0.8123 C   0  0  0  0  0  0  0  0  0  0  0  0
    8.6564   -0.9612   -1.2296 F   0  0  0  0  0  0  0  0  0  0  0  0
    6.8679   -0.9712    0.3611 C   0  0  0  0  0  0  0  0  0  0  0  0
    5.5928   -0.5271    0.7656 C   0  0  0  0  0  0  0  0  0  0  0  0
    5.1323   -0.9748    1.9470 F   0  0  0  0  0  0  0  0  0  0  0  0
    1.7911   -0.2028    1.4385 C   0  0  0  0  0  0  0  0  0  0  0  0
    2.3901   -0.7899    2.3524 O   0  0  0  0  0  0  0  0  0  0  0  0
    0.4453   -0.3720    1.4506 N   0  0  0  0  0  0  0  0  0  0  0  0
   -0.1817   -1.1919    2.4796 C   0  0  0  0  0  0  0  0  0  0  0  0
   -0.3522    0.1945    0.5367 C   0  0  0  0  0  0  0  0  0  0  0  0
   -1.6833    0.0203    0.5581 N   0  0  0  0  0  0  0  0  0  0  0  0
   -3.9920    1.8823    0.1681 N   0  0  0  0  0  0  0  0  0  0  0  0
   -3.4244    0.7184   -0.4163 C   0  0  0  0  0  0  0  0  0  0  0  0
   -4.0625    0.1610   -1.3307 O   0  0  0  0  0  0  0  0  0  0  0  0
   -2.1149    0.2060    0.0653 C   0  0  0  0  0  0  0  0  0  0  0  0
   -1.7789   -1.0134   -0.7275 C   0  0  0  0  0  0  0  0  0  0  0  0
   -0.5135   -1.6073   -0.3454 N   0  0  0  0  0  0  0  0  0  0  0  0
    0.7190   -0.9143   -0.4271 C   0  0  0  0  0  0  0  0  0  0  0  0
    0.6900    0.2685   -0.8532 O   0  0  0  0  0  0  0  0  0  0  0  0
    1.9655   -1.5991   -0.0150 C   0  0  0  0  0  0  0  0  0  0  0  0
    3.1710   -0.7379   -0.1601 C   0  0  0  0  0  0  0  0  0  0  0  0
    3.1061    0.4967    0.6492 C   0  0  0  0  0  0  0  0  0  0  0  0
    4.1533    1.4520    0.6535 N   0  0  0  0  0  0  0  0  0  0  0  0
    2.0814    0.6871    1.3490 O   0  0  0  0  0  0  0  0  0  0  0  0
  2  1  1  1
  2  3  1  0
  3  4  1  0
  4  5  1  0
  5  6  2  0
  6  7  1  0
  7  8  2  0
  2  9  1  0
  9 10  1  0
 10 11  2  0
 11 12  1  0
 12 13  2  0
 13 14  1  0
 14 15  2  0
 15 16  1  0
 16 17  1  0
 17 18  2  0
 18 19  1  0
 19 20  2  0
 20 21  1  0
 20 22  1  0
 22 23  2  0
 23 24  1  0
 15 25  1  0
 25 26  2  0
 25 27  1  0
 27 28  1  0
 27 29  1  0
 29 30  2  0
 31 32  1  0
 32 33  2  0
 32 34  1  0
 34 35  1  0
 35 36  1  0
 36 37  1  0
 37 38  2  0
 37 39  1  0
 39 40  1  0
 40 41  1  0
 41 42  1  0
 41 43  2  0
  8  4  1  0
 30 10  1  0
 29 13  1  0
 23 17  1  0
M  END

