
     RDKit          3D

 45 48  0  0  0  0  0  0  0  0999 V2000
    6.0353   -1.7200    1.0876 C   0  0  0  0  0  0  0  0  0  0  0  0
    4.4729   -1.9588    0.5803 C   0  0  2  0  0  0  0  0  0  0  0  0
    4.6321   -1.3135   -0.9300 C   0  0  0  0  0  0  0  0  0  0  0  0
    5.0263    0.0231   -0.8656 N   0  0  0  0  0  0  0  0  0  0  0  0
    6.2982    0.4458   -0.8514 N   0  0  0  0  0  0  0  0  0  0  0  0
    6.3510    1.7721   -0.7857 C   0  0  0  0  0  0  0  0  0  0  0  0
    5.0691    2.1963   -0.7575 N   0  0  0  0  0  0  0  0  0  0  0  0
    4.2912    1.1230   -0.8068 N   0  0  0  0  0  0  0  0  0  0  0  0
    3.9525   -0.6111    1.2201 N   0  0  0  0  0  0  0  0  0  0  0  0
    2.5591   -0.4791    0.9633 C   0  0  0  0  0  0  0  0  0  0  0  0
    1.9218    0.6312    1.4407 N   0  0  0  0  0  0  0  0  0  0  0  0
    0.6106    0.8605    1.2585 C   0  0  0  0  0  0  0  0  0  0  0  0
   -0.1536   -0.0677    0.5506 C   0  0  0  0  0  0  0  0  0  0  0  0
   -1.4967    0.0975    0.3245 C   0  0  0  0  0  0  0  0  0  0  0  0
   -2.2568   -0.8183   -0.3754 C   0  0  0  0  0  0  0  0  0  0  0  0
   -3.6185   -0.6614   -0.6106 O   0  0  0  0  0  0  0  0  0  0  0  0
   -4.2666    0.4677   -0.1252 C   0  0  0  0  0  0  0  0  0  0  0  0
   -3.6228    1.4587    0.5895 C   0  0  0  0  0  0  0  0  0  0  0  0
   -4.3078    2.5802    1.0618 C   0  0  0  0  0  0  0  0  0  0  0  0
   -5.6470    2.7171    0.8205 C   0  0  0  0  0  0  0  0  0  0  0  0
   -6.3536    3.8049    1.2686 F   0  0  0  0  0  0  0  0  0  0  0  0
   -6.3205    1.7300    0.1010 C   0  0  0  0  0  0  0  0  0  0  0  0
   -5.6208    0.6370   -0.3517 C   0  0  0  0  0  0  0  0  0  0  0  0
   -6.2531   -0.3282   -1.0491 F   0  0  0  0  0  0  0  0  0  0  0  0
   -1.5544   -1.9154   -0.8298 C   0  0  0  0  0  0  0  0  0  0  0  0
   -2.2105   -2.7812   -1.4766 O   0  0  0  0  0  0  0  0  0  0  0  0
   -0.2366   -2.0807   -0.6098 N   0  0  0  0  0  0  0  0  0  0  0  0
    0.4182   -3.2941   -1.1415 C   0  0  0  0  0  0  0  0  0  0  0  0
    0.4816   -1.1796    0.0718 C   0  0  0  0  0  0  0  0  0  0  0  0
    1.7993   -1.3360    0.2968 N   0  0  0  0  0  0  0  0  0  0  0  0
   -3.0499   -1.7860    0.6805 O   0  0  0  0  0  1  0  0  0  0  0  0
   -3.6777   -0.8079   -0.0638 C   0  0  0  0  0  0  0  0  0  0  0  0
   -4.3503    0.0609    0.5495 O   0  0  0  0  0  0  0  0  0  0  0  0
   -3.5904   -0.7510   -1.5111 C   0  0  0  0  0  0  0  0  0  0  0  0
   -2.7819    0.2585   -2.1557 C   0  0  0  0  0  0  0  0  0  0  0  0
   -1.4011    0.3094   -1.9275 N   0  0  0  0  0  0  0  0  0  0  0  0
   -0.7647    0.5398   -0.7110 C   0  0  0  0  0  0  0  0  0  0  0  0
   -1.4137    0.7383    0.3297 O   0  0  0  0  0  0  0  0  0  0  0  0
    0.7507    0.5407   -0.6936 C   0  0  0  0  0  0  0  0  0  0  0  0
    1.1930    0.7595    0.7095 C   0  0  0  0  0  0  0  0  0  0  0  0
    2.6531    0.7838    0.8463 C   0  0  0  0  0  0  0  0  0  0  0  0
    3.5077    1.8536    0.7692 C   0  0  0  0  0  0  0  0  0  0  0  0
    4.7688    1.4335    0.9536 N   0  0  0  0  0  0  0  0  0  0  0  0
    4.7278    0.1215    1.1448 C   0  0  0  0  0  0  0  0  0  0  0  0
    3.4286   -0.2851    1.0794 N   0  0  0  0  0  0  0  0  0  0  0  0
  2  1  1  1
  2  3  1  0
  3  4  1  0
  4  5  1  0
  5  6  2  0
  6  7  1  0
  7  8  2  0
  2  9  1  0
  9 10  1  0
 10 11  2  0
 11 12  1  0
 12 13  2  0
 13 14  1  0
 14 15  2  0
 15 16  1  0
 16 17  1  0
 17 18  2  0
 18 19  1  0
 19 20  2  0
 20 21  1  0
 20 22  1  0
 22 23  2  0
 23 24  1  0
 15 25  1  0
 25 26  2  0
 25 27  1  0
 27 28  1  0
 27 29  1  0
 29 30  2  0
 31 32  1  0
 32 33  2  0
 32 34  1  0
 34 35  1  0
 35 36  1  0
 36 37  1  0
 37 38  2  0
 37 39  1  0
 39 40  1  0
 40 41  1  0
 41 42  2  0
 42 43  1  0
 43 44  1  0
 44 45  2  0
  8  4  1  0
 30 10  1  0
 45 41  1  0
 29 13  1  0
 23 17  1  0
M  RAD  1  31   2
M  END

