
     RDKit          3D

 44 46  0  0  0  0  0  0  0  0999 V2000
    5.7580    1.5750    1.7253 C   0  0  0  0  0  0  0  0  0  0  0  0
    4.7982    0.3381    1.1657 C   0  0  2  0  0  0  0  0  0  0  0  0
    5.2052    0.6228   -0.4184 C   0  0  0  0  0  0  0  0  0  0  0  0
    6.6644    0.4256   -0.3942 N   0  0  0  0  0  0  0  0  0  0  0  0
    7.3275   -0.6843   -0.5952 N   0  0  0  0  0  0  0  0  0  0  0  0
    8.6289   -0.4479   -0.4880 C   0  0  0  0  0  0  0  0  0  0  0  0
    8.7562    0.8603   -0.2106 N   0  0  0  0  0  0  0  0  0  0  0  0
    7.5438    1.3796   -0.1568 N   0  0  0  0  0  0  0  0  0  0  0  0
    3.4664    1.1902    1.0668 N   0  0  0  0  0  0  0  0  0  0  0  0
    2.3177    0.5303    0.6119 C   0  0  0  0  0  0  0  0  0  0  0  0
    2.2107   -0.7333    0.2513 N   0  0  0  0  0  0  0  0  0  0  0  0
    1.0510   -1.2665   -0.1732 C   0  0  0  0  0  0  0  0  0  0  0  0
   -0.0842   -0.4544   -0.2356 C   0  0  0  0  0  0  0  0  0  0  0  0
   -1.2857   -0.8979   -0.6465 C   0  0  0  0  0  0  0  0  0  0  0  0
   -2.4458   -0.0700   -0.7110 C   0  0  0  0  0  0  0  0  0  0  0  0
   -3.5358   -0.7108   -1.1487 O   0  0  0  0  0  0  0  0  0  0  0  0
   -4.7654   -1.0824   -0.7502 C   0  0  0  0  0  0  0  0  0  0  0  0
   -4.9907   -2.4950   -0.6574 C   0  0  0  0  0  0  0  0  0  0  0  0
   -6.1583   -3.0537   -0.2772 C   0  0  0  0  0  0  0  0  0  0  0  0
   -7.2192   -2.2498    0.0486 C   0  0  0  0  0  0  0  0  0  0  0  0
   -8.3972   -2.7860    0.4331 F   0  0  0  0  0  0  0  0  0  0  0  0
   -7.0638   -0.8851   -0.0220 C   0  0  0  0  0  0  0  0  0  0  0  0
   -5.8406   -0.3128   -0.4207 C   0  0  0  0  0  0  0  0  0  0  0  0
   -5.7550    1.0273   -0.5019 F   0  0  0  0  0  0  0  0  0  0  0  0
   -2.2755    1.2240   -0.3279 C   0  0  0  0  0  0  0  0  0  0  0  0
   -3.1829    2.0477   -0.3353 O   0  0  0  0  0  0  0  0  0  0  0  0
   -1.0599    1.6732    0.0884 N   0  0  0  0  0  0  0  0  0  0  0  0
   -0.9122    3.0568    0.4904 C   0  0  0  0  0  0  0  0  0  0  0  0
    0.0275    0.8800    0.1449 C   0  0  0  0  0  0  0  0  0  0  0  0
    1.2168    1.2989    0.5463 N   0  0  0  0  0  0  0  0  0  0  0  0
   -5.7352    0.3983    1.1775 O   0  0  0  0  0  1  0  0  0  0  0  0
   -4.4535   -0.0095    0.8483 C   0  0  0  0  0  0  0  0  0  0  0  0
   -4.1122   -1.1774    1.1629 O   0  0  0  0  0  0  0  0  0  0  0  0
   -3.5523    0.9433    0.1461 C   0  0  0  0  0  0  0  0  0  0  0  0
   -2.2008    0.3176   -0.1266 C   0  0  0  0  0  0  0  0  0  0  0  0
   -1.3540    1.3389   -0.8343 C   0  0  0  0  0  0  0  0  0  0  0  0
   -0.0386    0.8777   -1.1558 N   0  0  0  0  0  0  0  0  0  0  0  0
    0.9173    0.4399   -0.2060 C   0  0  0  0  0  0  0  0  0  0  0  0
    0.5545    0.4687    1.0156 O   0  0  0  0  0  0  0  0  0  0  0  0
    2.2511   -0.0197   -0.6248 C   0  0  0  0  0  0  0  0  0  0  0  0
    3.1105   -0.4403    0.5394 C   0  0  0  0  0  0  0  0  0  0  0  0
    4.4427   -0.8961    0.0846 C   0  0  0  0  0  0  0  0  0  0  0  0
    5.4001   -1.3299    0.9815 O   0  0  0  0  0  1  0  0  0  0  0  0
    4.7702   -0.9116   -1.1410 O   0  0  0  0  0  0  0  0  0  0  0  0
  2  1  1  1
  2  3  1  0
  3  4  1  0
  4  5  1  0
  5  6  2  0
  6  7  1  0
  7  8  2  0
  2  9  1  0
  9 10  1  0
 10 11  2  0
 11 12  1  0
 12 13  2  0
 13 14  1  0
 14 15  2  0
 15 16  1  0
 16 17  1  0
 17 18  2  0
 18 19  1  0
 19 20  2  0
 20 21  1  0
 20 22  1  0
 22 23  2  0
 23 24  1  0
 15 25  1  0
 25 26  2  0
 25 27  1  0
 27 28  1  0
 27 29  1  0
 29 30  2  0
 31 32  1  0
 32 33  2  0
 32 34  1  0
 34 35  1  0
 35 36  1  0
 36 37  1  0
 37 38  1  0
 38 39  2  0
 38 40  1  0
 40 41  1  0
 41 42  1  0
 42 43  1  0
 42 44  2  0
  8  4  1  0
 30 10  1  0
 29 13  1  0
 23 17  1  0
M  RAD  2  31   2  43   2
M  END

