
     RDKit          3D

 15 15  0  0  0  0  0  0  0  0999 V2000
   -3.5330    1.1024   -2.6313 C   0  0  0  0  0  0  0  0  0  0  0  0
   -2.6702    0.7144   -1.4416 C   0  0  0  0  0  0  0  0  0  0  0  0
   -3.6325   -0.4220   -0.7383 C   0  0  2  0  0  0  0  0  0  0  0  0
   -4.8617    0.6393   -0.5112 C   0  0  0  0  0  0  0  0  0  0  0  0
   -3.0112   -0.1796    0.7395 C   0  0  0  0  0  0  0  0  0  0  0  0
   -1.5761   -0.4776    0.6296 C   0  0  0  0  0  0  0  0  0  0  0  0
   -1.0801   -0.8326   -0.4437 O   0  0  0  0  0  0  0  0  0  0  0  0
   -0.6923   -0.3700    1.7573 N   0  0  0  0  0  0  0  0  0  0  0  0
    0.7385   -0.6723    1.6260 C   0  0  0  0  0  0  0  0  0  0  0  0
    1.2335    0.3234    0.5749 C   0  0  0  0  0  0  0  0  0  0  0  0
    2.6777    0.1618    0.3111 C   0  0  0  0  0  0  0  0  0  0  0  0
    3.7216    0.7871    0.9457 C   0  0  0  0  0  0  0  0  0  0  0  0
    4.8814    0.3738    0.4184 N   0  0  0  0  0  0  0  0  0  0  0  0
    4.5709   -0.5078   -0.5441 C   0  0  0  0  0  0  0  0  0  0  0  0
    3.2337   -0.6402   -0.6134 N   0  0  0  0  0  0  0  0  0  0  0  0
  1  2  1  0
  2  3  1  0
  3  4  1  1
  3  5  1  0
  5  6  1  0
  6  7  2  0
  6  8  1  0
  8  9  1  0
  9 10  1  0
 10 11  1  0
 11 12  2  0
 12 13  1  0
 13 14  1  0
 14 15  2  0
 15 11  1  0
M  END

