
     RDKit          3D

 48 51  0  0  0  0  0  0  0  0999 V2000
    6.2971   -0.9242   -1.9983 C   0  0  0  0  0  0  0  0  0  0  0  0
    5.2093    0.1726   -1.3065 C   0  0  2  0  0  0  0  0  0  0  0  0
    5.9493   -0.0068    0.1620 C   0  0  0  0  0  0  0  0  0  0  0  0
    5.2488    0.8393    1.0857 N   0  0  0  0  0  0  0  0  0  0  0  0
    5.4733    2.1333    1.3670 N   0  0  0  0  0  0  0  0  0  0  0  0
    4.6173    2.5483    2.3099 C   0  0  0  0  0  0  0  0  0  0  0  0
    3.8553    1.4902    2.6113 N   0  0  0  0  0  0  0  0  0  0  0  0
    4.2519    0.4807    1.8665 N   0  0  0  0  0  0  0  0  0  0  0  0
    4.1503   -0.9599   -1.0302 N   0  0  0  0  0  0  0  0  0  0  0  0
    2.8456   -0.4223   -0.7333 C   0  0  0  0  0  0  0  0  0  0  0  0
    2.5859    0.8920   -0.7208 N   0  0  0  0  0  0  0  0  0  0  0  0
    1.4051    1.4578   -0.4551 C   0  0  0  0  0  0  0  0  0  0  0  0
    0.3484    0.5868   -0.1640 C   0  0  0  0  0  0  0  0  0  0  0  0
   -0.9069    1.0516    0.1238 C   0  0  0  0  0  0  0  0  0  0  0  0
   -1.9374    0.1859    0.4083 C   0  0  0  0  0  0  0  0  0  0  0  0
   -3.2243    0.6257    0.7048 O   0  0  0  0  0  0  0  0  0  0  0  0
   -4.3168    0.2726   -0.0480 C   0  0  0  0  0  0  0  0  0  0  0  0
   -5.3380   -0.4069    0.5581 C   0  0  0  0  0  0  0  0  0  0  0  0
   -6.4477   -0.7870   -0.1262 C   0  0  0  0  0  0  0  0  0  0  0  0
   -6.5762   -0.4947   -1.4667 C   0  0  0  0  0  0  0  0  0  0  0  0
   -7.6944   -0.8899   -2.1106 F   0  0  0  0  0  0  0  0  0  0  0  0
   -5.5484    0.1874   -2.0699 C   0  0  0  0  0  0  0  0  0  0  0  0
   -4.4145    0.5772   -1.3759 C   0  0  0  0  0  0  0  0  0  0  0  0
   -3.3941    1.2467   -1.9465 F   0  0  0  0  0  0  0  0  0  0  0  0
   -1.6791   -1.1698    0.3978 C   0  0  0  0  0  0  0  0  0  0  0  0
   -2.5787   -2.0247    0.6500 O   0  0  0  0  0  0  0  0  0  0  0  0
   -0.4399   -1.6104    0.1129 N   0  0  0  0  0  0  0  0  0  0  0  0
   -0.1533   -3.0408    0.0984 C   0  0  0  0  0  0  0  0  0  0  0  0
    0.5934   -0.7671   -0.1714 C   0  0  0  0  0  0  0  0  0  0  0  0
    1.8187   -1.2435   -0.4514 N   0  0  0  0  0  0  0  0  0  0  0  0
    5.8515    2.7023   -0.2089 N   0  0  0  0  0  0  0  0  0  0  0  0
    5.3979    1.6212   -1.0138 C   0  0  0  0  0  0  0  0  0  0  0  0
    5.8774    1.4872   -2.1540 O   0  0  0  0  0  0  0  0  0  0  0  0
    4.3760    0.6681   -0.5160 C   0  0  0  0  0  0  0  0  0  0  0  0
    4.0988   -0.3541   -1.5720 C   0  0  0  0  0  0  0  0  0  0  0  0
    3.0702   -1.3374   -1.1081 C   0  0  0  0  0  0  0  0  0  0  0  0
    1.7823   -0.7056   -0.7749 C   0  0  0  0  0  0  0  0  0  0  0  0
    1.6815    0.5406   -0.9079 O   0  0  0  0  0  0  0  0  0  0  0  0
    0.6527   -1.4144   -0.3147 N   0  0  0  0  0  0  0  0  0  0  0  0
   -0.5991   -0.7487    0.0023 C   0  0  0  0  0  0  0  0  0  0  0  0
   -1.6133   -1.7552    0.4646 C   0  0  0  0  0  0  0  0  0  0  0  0
   -2.8626   -1.0449    0.7750 C   0  0  0  0  0  0  0  0  0  0  0  0
   -3.0837   -0.5663    2.0321 C   0  0  0  0  0  0  0  0  0  0  0  0
   -4.2578    0.1068    2.3427 C   0  0  0  0  0  0  0  0  0  0  0  0
   -5.2129    0.2954    1.3725 C   0  0  0  0  0  0  0  0  0  0  0  0
   -6.3897    0.9690    1.6800 O   0  0  0  0  0  0  0  0  0  0  0  0
   -4.9666   -0.2010    0.0969 C   0  0  0  0  0  0  0  0  0  0  0  0
   -3.8025   -0.8640   -0.1960 C   0  0  0  0  0  0  0  0  0  0  0  0
  2  1  1  6
  2  3  1  0
  3  4  1  0
  4  5  1  0
  5  6  2  0
  6  7  1  0
  7  8  2  0
  2  9  1  0
  9 10  1  0
 10 11  2  0
 11 12  1  0
 12 13  2  0
 13 14  1  0
 14 15  2  0
 15 16  1  0
 16 17  1  0
 17 18  2  0
 18 19  1  0
 19 20  2  0
 20 21  1  0
 20 22  1  0
 22 23  2  0
 23 24  1  0
 15 25  1  0
 25 26  2  0
 25 27  1  0
 27 28  1  0
 27 29  1  0
 29 30  2  0
 31 32  1  0
 32 33  2  0
 32 34  1  0
 34 35  1  0
 35 36  1  0
 36 37  1  0
 37 38  2  0
 37 39  1  0
 39 40  1  0
 40 41  1  0
 41 42  1  0
 42 43  2  0
 43 44  1  0
 44 45  2  0
 45 46  1  0
 45 47  1  0
 47 48  2  0
  8  4  1  0
 30 10  1  0
 48 42  1  0
 29 13  1  0
 23 17  1  0
M  END

