
     RDKit          3D

 13 12  0  0  0  0  0  0  0  0999 V2000
   -2.8551   -0.7680    1.8758 O   0  0  0  0  0  1  0  0  0  0  0  0
   -2.6044    0.0411    0.7766 C   0  0  0  0  0  0  0  0  0  0  0  0
   -2.6448    1.2851    0.9472 O   0  0  0  0  0  0  0  0  0  0  0  0
   -2.3102   -0.6292   -0.5059 C   0  0  0  0  0  0  0  0  0  0  0  0
   -2.0551    0.3444   -1.6245 C   0  0  0  0  0  0  0  0  0  0  0  0
   -0.9090    1.1684   -1.2587 N   0  0  0  0  0  0  0  0  0  0  0  0
    0.3720    0.6330   -0.9989 C   0  0  0  0  0  0  0  0  0  0  0  0
    0.5209   -0.6059   -1.0891 O   0  0  0  0  0  0  0  0  0  0  0  0
    1.5507    1.4433   -0.6266 C   0  0  0  0  0  0  0  0  0  0  0  0
    2.7816    0.6545   -0.4049 C   0  0  0  0  0  0  0  0  0  0  0  0
    2.6903   -0.3514    0.6657 C   0  0  0  0  0  0  0  0  0  0  0  0
    3.8251   -1.1216    0.9137 O   0  0  0  0  0  1  0  0  0  0  0  0
    1.6380   -0.5126    1.3297 O   0  0  0  0  0  0  0  0  0  0  0  0
  1  2  1  0
  2  3  2  0
  2  4  1  0
  4  5  1  0
  5  6  1  0
  6  7  1  0
  7  8  2  0
  7  9  1  0
  9 10  1  0
 10 11  1  0
 11 12  1  0
 11 13  2  0
M  RAD  2   1   2  12   2
M  END

