
     RDKit          3D

  7  6  0  0  0  0  0  0  0  0999 V2000
   -2.5005   -0.7783    0.7727 C   0  0  0  0  0  0  0  0  0  0  0  0
   -1.4490    0.0617    0.1055 C   0  0  0  0  0  0  0  0  0  0  0  0
   -1.7054    1.0917   -0.5319 O   0  0  0  0  0  0  0  0  0  0  0  0
   -0.0971   -0.3658    0.2243 N   0  0  0  0  0  0  0  0  0  0  0  0
    0.9308    0.4346   -0.4145 C   0  0  0  0  0  0  0  0  0  0  0  0
    2.2884   -0.1929   -0.1668 C   0  0  0  0  0  0  0  0  0  0  0  0
    2.5328   -0.2511    1.2145 O   0  0  0  0  0  0  0  0  0  0  0  0
  1  2  1  0
  2  3  2  0
  2  4  1  0
  4  5  1  0
  5  6  1  0
  6  7  1  0
M  END

