
     RDKit          3D

 12 11  0  0  0  0  0  0  0  0999 V2000
    3.6767    0.9793   -2.7578 C   0  0  0  0  0  0  0  0  0  0  0  0
    4.3154    0.3245   -1.2047 S   0  0  0  0  0  0  0  0  0  0  0  0
    3.2121   -0.9009   -0.4711 C   0  0  0  0  0  0  0  0  0  0  0  0
    1.9565   -0.2716   -0.0581 C   0  0  0  0  0  0  0  0  0  0  0  0
    0.9130   -1.0992    0.5651 C   0  0  0  0  0  0  0  0  0  0  0  0
   -0.2513   -0.2080    0.8811 C   0  0  0  0  0  0  0  0  0  0  0  0
   -0.1329    1.0092    0.5875 O   0  0  0  0  0  0  0  0  0  0  0  0
   -1.4359   -0.6628    1.4750 N   0  0  0  0  0  0  0  0  0  0  0  0
   -2.5640    0.0338    1.7876 C   0  0  0  0  0  0  0  0  0  0  0  0
   -3.4812    0.6310    0.6480 C   0  0  1  0  0  0  0  0  0  0  0  0
   -2.3753    0.9015   -0.4929 C   0  0  0  0  0  0  0  0  0  0  0  0
   -3.8329   -0.7367    0.0359 O   0  0  0  0  0  0  0  0  0  0  0  0
  1  2  1  0
  2  3  1  0
  3  4  1  0
  4  5  1  0
  5  6  1  0
  6  7  2  0
  6  8  1  0
  8  9  1  0
  9 10  1  0
 10 11  1  6
 10 12  1  0
M  END

