
     RDKit          3D

 45 48  0  0  0  0  0  0  0  0999 V2000
    5.7207    1.0391    0.6648 C   0  0  0  0  0  0  0  0  0  0  0  0
    4.8841    0.2977   -0.3703 C   0  0  0  0  0  0  0  0  0  0  0  0
    3.3723    0.6410    0.1320 C   0  0  2  0  0  0  0  0  0  0  0  0
    3.5947   -0.0536    1.6024 C   0  0  0  0  0  0  0  0  0  0  0  0
    2.7304   -0.7041   -0.5184 C   0  0  0  0  0  0  0  0  0  0  0  0
    1.2903   -0.5930   -0.1650 C   0  0  0  0  0  0  0  0  0  0  0  0
    0.7983    0.3640    0.4884 O   0  0  0  0  0  0  0  0  0  0  0  0
    0.3463   -1.6008   -0.5597 N   0  0  0  0  0  0  0  0  0  0  0  0
   -1.0607   -1.4859   -0.2108 C   0  0  0  0  0  0  0  0  0  0  0  0
   -1.5212   -0.2175   -0.8434 C   0  0  0  0  0  0  0  0  0  0  0  0
   -2.9420    0.1019   -0.6145 C   0  0  0  0  0  0  0  0  0  0  0  0
   -3.4819    1.2546   -1.1531 C   0  0  0  0  0  0  0  0  0  0  0  0
   -4.7696    1.2756   -0.7828 N   0  0  0  0  0  0  0  0  0  0  0  0
   -5.0573    0.2031   -0.0467 C   0  0  0  0  0  0  0  0  0  0  0  0
   -3.9044   -0.5222    0.0503 N   0  0  0  0  0  0  0  0  0  0  0  0
    3.8037   -1.4721    1.2186 C   0  0  0  0  0  0  0  0  0  0  0  0
    3.9084   -0.3077    2.3904 C   0  0  1  0  0  0  0  0  0  0  0  0
    5.5460   -0.2080    2.2907 C   0  0  0  0  0  0  0  0  0  0  0  0
    5.8511    0.1668    0.9436 N   0  0  0  0  0  0  0  0  0  0  0  0
    5.9939    1.3438    0.3805 N   0  0  0  0  0  0  0  0  0  0  0  0
    6.2805    1.1710   -0.9207 C   0  0  0  0  0  0  0  0  0  0  0  0
    6.3162   -0.1480   -1.1709 N   0  0  0  0  0  0  0  0  0  0  0  0
    6.0493   -0.7158   -0.0081 N   0  0  0  0  0  0  0  0  0  0  0  0
    3.6483    0.8863    1.4024 N   0  0  0  0  0  0  0  0  0  0  0  0
    2.4231    0.8749    0.7068 C   0  0  0  0  0  0  0  0  0  0  0  0
    2.1570    1.8683   -0.1438 N   0  0  0  0  0  0  0  0  0  0  0  0
    1.0096    1.8761   -0.8083 C   0  0  0  0  0  0  0  0  0  0  0  0
    0.1012    0.8601   -0.6164 C   0  0  0  0  0  0  0  0  0  0  0  0
   -1.1152    0.8209   -1.2874 C   0  0  0  0  0  0  0  0  0  0  0  0
   -1.9775   -0.2252   -1.0477 C   0  0  0  0  0  0  0  0  0  0  0  0
   -3.1896   -0.2286   -1.7415 O   0  0  0  0  0  0  0  0  0  0  0  0
   -4.3410   -0.2003   -0.9416 C   0  0  0  0  0  0  0  0  0  0  0  0
   -5.2343   -1.2339   -1.0364 C   0  0  0  0  0  0  0  0  0  0  0  0
   -6.3769   -1.2328   -0.2609 C   0  0  0  0  0  0  0  0  0  0  0  0
   -6.5782   -0.1674    0.5976 C   0  0  0  0  0  0  0  0  0  0  0  0
   -7.7000   -0.1678    1.3579 F   0  0  0  0  0  0  0  0  0  0  0  0
   -5.6889    0.8787    0.7036 C   0  0  0  0  0  0  0  0  0  0  0  0
   -4.5448    0.8541   -0.0888 C   0  0  0  0  0  0  0  0  0  0  0  0
   -3.6157    1.8291   -0.0580 F   0  0  0  0  0  0  0  0  0  0  0  0
   -1.6472   -1.2297   -0.1525 C   0  0  0  0  0  0  0  0  0  0  0  0
   -2.4429   -2.1852    0.0618 O   0  0  0  0  0  0  0  0  0  0  0  0
   -0.4652   -1.1873    0.4966 N   0  0  0  0  0  0  0  0  0  0  0  0
   -0.1066   -2.2371    1.4400 C   0  0  0  0  0  0  0  0  0  0  0  0
    0.3859   -0.1602    0.2638 C   0  0  0  0  0  0  0  0  0  0  0  0
    1.5497   -0.1234    0.9064 N   0  0  0  0  0  0  0  0  0  0  0  0
  1  2  1  0
  2  3  1  0
  3  4  1  1
  3  5  1  0
  5  6  1  0
  6  7  2  0
  6  8  1  0
  8  9  1  0
  9 10  1  0
 10 11  1  0
 11 12  2  0
 12 13  1  0
 13 14  1  0
 14 15  2  0
 17 16  1  1
 17 18  1  0
 18 19  1  0
 19 20  1  0
 20 21  2  0
 21 22  1  0
 22 23  2  0
 17 24  1  0
 24 25  1  0
 25 26  2  0
 26 27  1  0
 27 28  2  0
 28 29  1  0
 29 30  2  0
 30 31  1  0
 31 32  1  0
 32 33  2  0
 33 34  1  0
 34 35  2  0
 35 36  1  0
 35 37  1  0
 37 38  2  0
 38 39  1  0
 30 40  1  0
 40 41  2  0
 40 42  1  0
 42 43  1  0
 42 44  1  0
 44 45  2  0
 15 11  1  0
 23 19  1  0
 45 25  1  0
 44 28  1  0
 38 32  1  0
M  END

