
     RDKit          3D

 43 45  0  0  0  0  0  0  0  0999 V2000
   -3.9204    2.1489   -0.6785 C   0  0  0  0  0  0  0  0  0  0  0  0
   -2.7212    1.3872   -1.1798 C   0  0  0  0  0  0  0  0  0  0  0  0
   -2.4028    0.2915   -0.2055 C   0  0  0  0  0  0  0  0  0  0  0  0
   -3.1016    0.1388    0.8259 O   0  0  0  0  0  0  0  0  0  0  0  0
   -1.3174   -0.5977   -0.4117 N   0  0  0  0  0  0  0  0  0  0  0  0
   -1.0808   -1.6265    0.5783 C   0  0  0  0  0  0  0  0  0  0  0  0
    0.0866   -2.4960    0.2490 C   0  0  0  0  0  0  0  0  0  0  0  0
    1.3328   -1.6412    0.1611 C   0  0  0  0  0  0  0  0  0  0  0  0
    1.6217   -0.9301    1.4553 C   0  0  0  0  0  0  0  0  0  0  0  0
    2.8365   -0.1461    1.2436 N   0  0  0  0  0  0  0  0  0  0  0  0
    2.8519    0.8443    0.2442 C   0  0  0  0  0  0  0  0  0  0  0  0
    4.0317    1.5956    0.0489 N   0  0  0  0  0  0  0  0  0  0  0  0
    1.7831    1.0313   -0.4610 N   0  0  0  0  0  4  0  0  0  0  0  0
    5.4150   -0.9270   -2.9067 C   0  0  0  0  0  0  0  0  0  0  0  0
    3.9483   -0.1886   -2.6784 C   0  0  2  0  0  0  0  0  0  0  0  0
    4.5122    0.9023   -1.5791 C   0  0  0  0  0  0  0  0  0  0  0  0
    5.0496    0.1957   -0.4753 N   0  0  0  0  0  0  0  0  0  0  0  0
    6.3403   -0.1734   -0.4324 N   0  0  0  0  0  0  0  0  0  0  0  0
    6.6102   -0.8177    0.6901 C   0  0  0  0  0  0  0  0  0  0  0  0
    5.4520   -0.8533    1.3719 N   0  0  0  0  0  0  0  0  0  0  0  0
    4.5311   -0.2387    0.6517 N   0  0  0  0  0  0  0  0  0  0  0  0
    3.4688   -1.2252   -1.5947 N   0  0  0  0  0  0  0  0  0  0  0  0
    2.1590   -0.8850   -1.1387 C   0  0  0  0  0  0  0  0  0  0  0  0
    1.5870   -1.6661   -0.2054 N   0  0  0  0  0  0  0  0  0  0  0  0
    0.3654   -1.4359    0.2887 C   0  0  0  0  0  0  0  0  0  0  0  0
   -0.3458   -0.3577   -0.1691 C   0  0  0  0  0  0  0  0  0  0  0  0
   -1.6113   -0.0425    0.2821 C   0  0  0  0  0  0  0  0  0  0  0  0
   -2.2794    1.0534   -0.2135 C   0  0  0  0  0  0  0  0  0  0  0  0
   -3.5545    1.3350    0.2695 O   0  0  0  0  0  0  0  0  0  0  0  0
   -4.1765    0.5620    1.2240 C   0  0  0  0  0  0  0  0  0  0  0  0
   -4.5429    1.1600    2.4273 C   0  0  0  0  0  0  0  0  0  0  0  0
   -5.1718    0.4276    3.4222 C   0  0  0  0  0  0  0  0  0  0  0  0
   -5.4448   -0.8947    3.2430 C   0  0  0  0  0  0  0  0  0  0  0  0
   -6.0547   -1.6332    4.1906 F   0  0  0  0  0  0  0  0  0  0  0  0
   -5.0891   -1.4967    2.0618 C   0  0  0  0  0  0  0  0  0  0  0  0
   -4.4623   -0.7741    1.0656 C   0  0  0  0  0  0  0  0  0  0  0  0
   -4.1243   -1.3950   -0.0866 F   0  0  0  0  0  0  0  0  0  0  0  0
   -1.6743    1.8393   -1.1689 C   0  0  0  0  0  0  0  0  0  0  0  0
   -2.3059    2.8432   -1.6122 O   0  0  0  0  0  0  0  0  0  0  0  0
   -0.4402    1.5382   -1.6139 N   0  0  0  0  0  0  0  0  0  0  0  0
    0.1634    2.3815   -2.6137 C   0  0  0  0  0  0  0  0  0  0  0  0
    0.2245    0.4518   -1.1238 C   0  0  0  0  0  0  0  0  0  0  0  0
    1.4510    0.1650   -1.5760 N   0  0  0  0  0  0  0  0  0  0  0  0
  1  2  1  0
  2  3  1  0
  3  4  2  0
  3  5  1  0
  5  6  1  0
  6  7  1  0
  7  8  1  0
  8  9  1  0
  9 10  1  0
 10 11  1  0
 11 12  1  0
 11 13  2  0
 15 14  1  6
 15 16  1  0
 16 17  1  0
 17 18  1  0
 18 19  2  0
 19 20  1  0
 20 21  2  0
 15 22  1  0
 22 23  1  0
 23 24  2  0
 24 25  1  0
 25 26  2  0
 26 27  1  0
 27 28  2  0
 28 29  1  0
 29 30  1  0
 30 31  2  0
 31 32  1  0
 32 33  2  0
 33 34  1  0
 33 35  1  0
 35 36  2  0
 36 37  1  0
 28 38  1  0
 38 39  2  0
 38 40  1  0
 40 41  1  0
 40 42  1  0
 42 43  2  0
 21 17  1  0
 43 23  1  0
 42 26  1  0
 36 30  1  0
M  CHG  1  13   1
M  END

