
     RDKit          3D

 44 46  0  0  0  0  0  0  0  0999 V2000
    6.3179   -1.1646    0.4716 C   0  0  0  0  0  0  0  0  0  0  0  0
    4.9219   -2.3035    0.3203 S   0  0  0  0  0  0  0  0  0  0  0  0
    3.5021   -1.4329   -0.4402 C   0  0  0  0  0  0  0  0  0  0  0  0
    3.0521   -0.3873    0.5196 C   0  0  0  0  0  0  0  0  0  0  0  0
    1.9008    0.4425    0.0935 C   0  0  0  0  0  0  0  0  0  0  0  0
    0.6932   -0.3433   -0.1629 N   0  0  0  0  0  0  0  0  0  0  0  0
   -0.5141    0.2686   -0.5776 C   0  0  0  0  0  0  0  0  0  0  0  0
   -0.5128    1.5180   -0.7179 O   0  0  0  0  0  0  0  0  0  0  0  0
   -1.7675   -0.4573   -0.8550 C   0  0  0  0  0  0  0  0  0  0  0  0
   -2.8911    0.4257   -1.2780 C   0  0  0  0  0  0  0  0  0  0  0  0
   -3.2587    1.4612   -0.2489 C   0  0  0  0  0  0  0  0  0  0  0  0
   -3.6805    0.7735    1.0246 C   0  0  0  0  0  0  0  0  0  0  0  0
   -4.0518    1.6560    2.0839 N   0  0  0  0  0  0  0  0  0  0  0  0
   -3.7114   -0.4565    1.1655 O   0  0  0  0  0  0  0  0  0  0  0  0
    3.7961   -1.3047   -1.7933 C   0  0  0  0  0  0  0  0  0  0  0  0
    4.5388   -0.1150   -0.9061 C   0  0  2  0  0  0  0  0  0  0  0  0
    5.9629   -0.9640   -0.8050 C   0  0  0  0  0  0  0  0  0  0  0  0
    6.7464   -0.0008   -0.0183 N   0  0  0  0  0  0  0  0  0  0  0  0
    6.8422    0.0732    1.3032 N   0  0  0  0  0  0  0  0  0  0  0  0
    7.6625    1.1005    1.5931 C   0  0  0  0  0  0  0  0  0  0  0  0
    8.0458    1.6266    0.4430 N   0  0  0  0  0  0  0  0  0  0  0  0
    7.4839    0.9510   -0.5444 N   0  0  0  0  0  0  0  0  0  0  0  0
    4.0037   -0.6971    0.4689 N   0  0  0  0  0  0  0  0  0  0  0  0
    2.5770   -0.7271    0.5151 C   0  0  0  0  0  0  0  0  0  0  0  0
    2.0267   -1.2021    1.6350 N   0  0  0  0  0  0  0  0  0  0  0  0
    0.6913   -1.2666    1.7650 C   0  0  0  0  0  0  0  0  0  0  0  0
   -0.1494   -0.8420    0.7403 C   0  0  0  0  0  0  0  0  0  0  0  0
   -1.4958   -0.8807    0.8106 C   0  0  0  0  0  0  0  0  0  0  0  0
   -2.3713   -0.4491   -0.2295 C   0  0  0  0  0  0  0  0  0  0  0  0
   -3.6354   -0.5519   -0.0066 O   0  0  0  0  0  0  0  0  0  0  0  0
   -4.8470   -0.0624    0.1494 C   0  0  0  0  0  0  0  0  0  0  0  0
   -5.5065   -0.2178    1.4140 C   0  0  0  0  0  0  0  0  0  0  0  0
   -6.7601    0.2719    1.6228 C   0  0  0  0  0  0  0  0  0  0  0  0
   -7.4731    0.9394    0.6542 C   0  0  0  0  0  0  0  0  0  0  0  0
   -8.7122    1.4046    0.9210 F   0  0  0  0  0  0  0  0  0  0  0  0
   -6.8706    1.1023   -0.5622 C   0  0  0  0  0  0  0  0  0  0  0  0
   -5.5729    0.5994   -0.7908 C   0  0  0  0  0  0  0  0  0  0  0  0
   -5.0709    0.7938   -2.0374 F   0  0  0  0  0  0  0  0  0  0  0  0
   -1.7205    0.0188   -1.3332 C   0  0  0  0  0  0  0  0  0  0  0  0
   -2.3144    0.4404   -2.3510 O   0  0  0  0  0  0  0  0  0  0  0  0
   -0.3462    0.0639   -1.4175 N   0  0  0  0  0  0  0  0  0  0  0  0
    0.2648    0.5726   -2.6174 C   0  0  0  0  0  0  0  0  0  0  0  0
    0.4313   -0.3536   -0.4109 C   0  0  0  0  0  0  0  0  0  0  0  0
    1.7726   -0.3233   -0.4594 N   0  0  0  0  0  0  0  0  0  0  0  0
  1  2  1  0
  2  3  1  0
  3  4  1  0
  4  5  1  0
  5  6  1  0
  6  7  1  0
  7  8  2  0
  7  9  1  0
  9 10  1  0
 10 11  1  0
 11 12  1  0
 12 13  1  0
 12 14  2  0
 16 15  1  6
 16 17  1  0
 17 18  1  0
 18 19  1  0
 19 20  2  0
 20 21  1  0
 21 22  2  0
 16 23  1  0
 23 24  1  0
 24 25  2  0
 25 26  1  0
 26 27  2  0
 27 28  1  0
 28 29  2  0
 29 30  1  0
 30 31  1  0
 31 32  2  0
 32 33  1  0
 33 34  2  0
 34 35  1  0
 34 36  1  0
 36 37  2  0
 37 38  1  0
 29 39  1  0
 39 40  2  0
 39 41  1  0
 41 42  1  0
 41 43  1  0
 43 44  2  0
 22 18  1  0
 44 24  1  0
 43 27  1  0
 37 31  1  0
M  END

