
     RDKit          3D

 18 18  0  0  0  0  0  0  0  0999 V2000
    4.1724    3.5548    0.6104 N   0  0  0  0  0  0  0  0  0  0  0  0
    3.4643    2.4081    0.1576 C   0  0  0  0  0  0  0  0  0  0  0  0
    2.4670    2.0056    0.8078 O   0  0  0  0  0  0  0  0  0  0  0  0
    3.9453    1.7397   -1.0723 C   0  0  0  0  0  0  0  0  0  0  0  0
    3.0280    0.5614   -1.3322 C   0  0  0  0  0  0  0  0  0  0  0  0
    1.5958    1.0026   -1.5240 C   0  0  0  0  0  0  0  0  0  0  0  0
    0.7730   -0.2031   -1.7709 C   0  0  0  0  0  0  0  0  0  0  0  0
    1.3002   -1.3345   -1.7909 O   0  0  0  0  0  0  0  0  0  0  0  0
   -0.6294   -0.1086   -1.9905 N   0  0  0  0  0  0  0  0  0  0  0  0
   -1.4615   -1.2703   -2.2348 C   0  0  0  0  0  0  0  0  0  0  0  0
   -1.3921   -2.2138   -1.0766 C   0  0  0  0  0  0  0  0  0  0  0  0
   -1.8573   -1.5939    0.2017 C   0  0  0  0  0  0  0  0  0  0  0  0
   -3.1898   -1.6979    0.5162 C   0  0  0  0  0  0  0  0  0  0  0  0
   -3.6499   -1.1338    1.6934 C   0  0  0  0  0  0  0  0  0  0  0  0
   -2.7880   -0.4764    2.5410 C   0  0  0  0  0  0  0  0  0  0  0  0
   -3.3327    0.0608    3.7020 O   0  0  0  0  0  0  0  0  0  0  0  0
   -1.4375   -0.3641    2.2344 C   0  0  0  0  0  0  0  0  0  0  0  0
   -1.0079   -0.9366    1.0536 C   0  0  0  0  0  0  0  0  0  0  0  0
  1  2  1  0
  2  3  2  0
  2  4  1  0
  4  5  1  0
  5  6  1  0
  6  7  1  0
  7  8  2  0
  7  9  1  0
  9 10  1  0
 10 11  1  0
 11 12  1  0
 12 13  2  0
 13 14  1  0
 14 15  2  0
 15 16  1  0
 15 17  1  0
 17 18  2  0
 18 12  1  0
M  END

