
     RDKit          3D

 12 11  0  0  0  0  0  0  0  0999 V2000
   -3.5011   -0.7904   -1.2738 C   0  0  0  0  0  0  0  0  0  0  0  0
   -3.6044   -0.1649    0.1068 C   0  0  0  0  0  0  0  0  0  0  0  0
   -2.0151   -0.2299    0.5781 C   0  0  2  0  0  0  0  0  0  0  0  0
   -2.3415    0.4660    2.0316 C   0  0  0  0  0  0  0  0  0  0  0  0
   -1.6596    1.2046   -0.1365 C   0  0  0  0  0  0  0  0  0  0  0  0
   -0.2536    1.3900    0.1430 N   0  0  0  0  0  0  0  0  0  0  0  0
    0.7171    0.4759   -0.2904 C   0  0  0  0  0  0  0  0  0  0  0  0
    0.3625   -0.5395   -0.9430 O   0  0  0  0  0  0  0  0  0  0  0  0
    2.1721    0.6331   -0.0221 C   0  0  0  0  0  0  0  0  0  0  0  0
    2.9946   -0.4668   -0.5850 C   0  0  0  0  0  0  0  0  0  0  0  0
    2.6814   -1.8313   -0.0811 C   0  0  0  0  0  0  0  0  0  0  0  0
    4.4474   -0.1470   -0.7020 C   0  0  0  0  0  0  0  0  0  0  0  0
  1  2  1  0
  2  3  1  0
  3  4  1  1
  3  5  1  0
  5  6  1  0
  6  7  1  0
  7  8  2  0
  7  9  1  0
  9 10  1  0
 10 11  1  0
 10 12  1  0
M  END

