
     RDKit          3D

 14 13  0  0  0  0  0  0  0  0999 V2000
   -3.6539   -0.3604    2.3775 C   0  0  0  0  0  0  0  0  0  0  0  0
   -2.8994    0.8265    1.7905 C   0  0  0  0  0  0  0  0  0  0  0  0
   -3.6747    1.4727    0.6609 C   0  0  0  0  0  0  0  0  0  0  0  0
   -1.6265    0.2664    1.1861 C   0  0  0  0  0  0  0  0  0  0  0  0
   -2.0942   -0.7323    0.1177 C   0  0  0  0  0  0  0  0  0  0  0  0
   -0.8900   -1.2777   -0.4709 N   0  0  0  0  0  0  0  0  0  0  0  0
    0.0309   -0.3904   -1.1120 C   0  0  0  0  0  0  0  0  0  0  0  0
   -0.2494    0.8166   -1.1332 O   0  0  0  0  0  0  0  0  0  0  0  0
    1.2874   -0.9197   -1.7319 C   0  0  0  0  0  0  0  0  0  0  0  0
    2.0351    0.2533   -2.3188 C   0  0  0  0  0  0  0  0  0  0  0  0
    2.3923    1.2787   -1.2676 C   0  0  0  0  0  0  0  0  0  0  0  0
    3.2712    0.7010   -0.1817 C   0  0  0  0  0  0  0  0  0  0  0  0
    2.5752   -0.4548    0.5332 C   0  0  0  0  0  0  0  0  0  0  0  0
    3.4960   -0.9365    1.5503 N   0  0  0  0  0  4  0  0  0  0  0  0
  1  2  1  0
  2  3  1  0
  2  4  1  0
  4  5  1  0
  5  6  1  0
  6  7  1  0
  7  8  2  0
  7  9  1  0
  9 10  1  0
 10 11  1  0
 11 12  1  0
 12 13  1  0
 13 14  1  0
M  CHG  1  14   1
M  END

