
     RDKit          3D

 44 46  0  0  0  0  0  0  0  0999 V2000
    3.8578   -0.7848    0.9564 C   0  0  0  0  0  0  0  0  0  0  0  0
    3.4105   -0.4933   -0.4222 C   0  0  0  0  0  0  0  0  0  0  0  0
    2.7996    1.0228   -0.4832 C   0  0  2  0  0  0  0  0  0  0  0  0
    4.1932    1.7423    0.0096 C   0  0  0  0  0  0  0  0  0  0  0  0
    2.1537    0.9767    1.0219 C   0  0  0  0  0  0  0  0  0  0  0  0
    1.2048   -0.1399    0.9641 N   0  0  0  0  0  0  0  0  0  0  0  0
    0.1388   -0.0515    0.0097 C   0  0  0  0  0  0  0  0  0  0  0  0
    0.0319    0.9469   -0.7417 O   0  0  0  0  0  0  0  0  0  0  0  0
   -0.8292   -1.1719   -0.0617 C   0  0  0  0  0  0  0  0  0  0  0  0
   -1.8439   -0.8398   -1.1345 C   0  0  0  0  0  0  0  0  0  0  0  0
   -2.5687    0.4475   -0.7924 C   0  0  0  0  0  0  0  0  0  0  0  0
   -3.2804    0.2786    0.5316 C   0  0  0  0  0  0  0  0  0  0  0  0
   -4.2824   -0.8662    0.4127 C   0  0  0  0  0  0  0  0  0  0  0  0
   -4.9858   -1.0674    1.6465 N   0  0  0  0  0  4  0  0  0  0  0  0
    5.9085   -2.0610    0.9584 C   0  0  0  0  0  0  0  0  0  0  0  0
    4.3132   -2.1651    0.6356 C   0  0  2  0  0  0  0  0  0  0  0  0
    4.3414   -1.3679   -0.7769 C   0  0  0  0  0  0  0  0  0  0  0  0
    4.8348   -0.0386   -0.6109 N   0  0  0  0  0  0  0  0  0  0  0  0
    6.1178    0.2217   -0.7186 N   0  0  0  0  0  0  0  0  0  0  0  0
    6.3311    1.5211   -0.5246 C   0  0  0  0  0  0  0  0  0  0  0  0
    5.1321    2.0770   -0.2891 N   0  0  0  0  0  0  0  0  0  0  0  0
    4.2444    1.1000   -0.3491 N   0  0  0  0  0  0  0  0  0  0  0  0
    3.9107   -0.9142    1.4658 N   0  0  0  0  0  0  0  0  0  0  0  0
    2.5452   -0.5706    1.4984 C   0  0  0  0  0  0  0  0  0  0  0  0
    2.2265    0.5159    2.2244 N   0  0  0  0  0  0  0  0  0  0  0  0
    0.9594    0.9596    2.3437 C   0  0  0  0  0  0  0  0  0  0  0  0
   -0.0353    0.2582    1.6881 C   0  0  0  0  0  0  0  0  0  0  0  0
   -1.3646    0.6274    1.7445 C   0  0  0  0  0  0  0  0  0  0  0  0
   -2.3493   -0.0768    1.0884 C   0  0  0  0  0  0  0  0  0  0  0  0
   -3.6898    0.2883    1.1402 O   0  0  0  0  0  0  0  0  0  0  0  0
   -4.3386    0.5985   -0.0402 C   0  0  0  0  0  0  0  0  0  0  0  0
   -5.4331   -0.1458   -0.4101 C   0  0  0  0  0  0  0  0  0  0  0  0
   -6.1061    0.1252   -1.5697 C   0  0  0  0  0  0  0  0  0  0  0  0
   -5.7036    1.1496   -2.3937 C   0  0  0  0  0  0  0  0  0  0  0  0
   -6.3832    1.4000   -3.5349 F   0  0  0  0  0  0  0  0  0  0  0  0
   -4.6134    1.9157   -2.0569 C   0  0  0  0  0  0  0  0  0  0  0  0
   -3.9471    1.6191   -0.8727 C   0  0  0  0  0  0  0  0  0  0  0  0
   -2.8899    2.3699   -0.5562 F   0  0  0  0  0  0  0  0  0  0  0  0
   -1.9678   -1.1835    0.3579 C   0  0  0  0  0  0  0  0  0  0  0  0
   -2.8806   -1.8195   -0.2384 O   0  0  0  0  0  0  0  0  0  0  0  0
   -0.6765   -1.5652    0.2866 N   0  0  0  0  0  0  0  0  0  0  0  0
   -0.3184   -2.7511   -0.5042 C   0  0  0  0  0  0  0  0  0  0  0  0
    0.2660   -0.8589    0.9375 C   0  0  0  0  0  0  0  0  0  0  0  0
    1.5663   -1.2292    0.8758 N   0  0  0  0  0  0  0  0  0  0  0  0
  1  2  1  0
  2  3  1  0
  3  4  1  1
  3  5  1  0
  5  6  1  0
  6  7  1  0
  7  8  2  0
  7  9  1  0
  9 10  1  0
 10 11  1  0
 11 12  1  0
 12 13  1  0
 13 14  1  0
 16 15  1  1
 16 17  1  0
 17 18  1  0
 18 19  1  0
 19 20  2  0
 20 21  1  0
 21 22  2  0
 16 23  1  0
 23 24  1  0
 24 25  2  0
 25 26  1  0
 26 27  2  0
 27 28  1  0
 28 29  2  0
 29 30  1  0
 30 31  1  0
 31 32  2  0
 32 33  1  0
 33 34  2  0
 34 35  1  0
 34 36  1  0
 36 37  2  0
 37 38  1  0
 29 39  1  0
 39 40  2  0
 39 41  1  0
 41 42  1  0
 41 43  1  0
 43 44  2  0
 22 18  1  0
 44 24  1  0
 43 27  1  0
 37 31  1  0
M  CHG  1  14   1
M  END

