
     RDKit          3D

 46 49  0  0  0  0  0  0  0  0999 V2000
    3.7253    2.3605    0.2363 C   0  0  0  0  0  0  0  0  0  0  0  0
    3.7938    0.9385    0.7840 C   0  0  0  0  0  0  0  0  0  0  0  0
    5.1105    0.2805    0.3638 C   0  0  0  0  0  0  0  0  0  0  0  0
    2.6288    0.1414    0.2361 C   0  0  0  0  0  0  0  0  0  0  0  0
    2.7033    0.1086   -1.2766 C   0  0  0  0  0  0  0  0  0  0  0  0
    1.5913   -0.6511   -1.7792 N   0  0  0  0  0  0  0  0  0  0  0  0
    0.2437   -0.2691   -1.5230 C   0  0  0  0  0  0  0  0  0  0  0  0
    0.1000    0.7698   -0.8328 O   0  0  0  0  0  0  0  0  0  0  0  0
   -0.9155   -1.0071   -2.0111 C   0  0  0  0  0  0  0  0  0  0  0  0
   -2.2502   -0.4923   -1.6301 C   0  0  0  0  0  0  0  0  0  0  0  0
   -2.5284   -0.4409   -0.1798 C   0  0  0  0  0  0  0  0  0  0  0  0
   -3.0774   -1.5208    0.4927 C   0  0  0  0  0  0  0  0  0  0  0  0
   -3.3361   -1.4422    1.8536 C   0  0  0  0  0  0  0  0  0  0  0  0
   -3.0394   -0.2739    2.5293 C   0  0  0  0  0  0  0  0  0  0  0  0
   -2.4924    0.8186    1.8885 C   0  0  0  0  0  0  0  0  0  0  0  0
   -2.2569    0.6797    0.5299 C   0  0  0  0  0  0  0  0  0  0  0  0
    5.9491   -1.4811    0.9455 C   0  0  0  0  0  0  0  0  0  0  0  0
    4.4353   -1.8481    0.3786 C   0  0  2  0  0  0  0  0  0  0  0  0
    4.7200   -1.1918   -1.1081 C   0  0  0  0  0  0  0  0  0  0  0  0
    5.0345    0.1752   -0.9519 N   0  0  0  0  0  0  0  0  0  0  0  0
    6.1672    0.8247   -0.7722 N   0  0  0  0  0  0  0  0  0  0  0  0
    5.9634    2.1536   -0.6749 C   0  0  0  0  0  0  0  0  0  0  0  0
    4.6402    2.3206   -0.8017 N   0  0  0  0  0  0  0  0  0  0  0  0
    4.1091    1.1372   -0.9648 N   0  0  0  0  0  0  0  0  0  0  0  0
    3.7847   -0.5446    0.9922 N   0  0  0  0  0  0  0  0  0  0  0  0
    2.3870   -0.4335    0.7328 C   0  0  0  0  0  0  0  0  0  0  0  0
    1.7310    0.6352    1.2075 N   0  0  0  0  0  0  0  0  0  0  0  0
    0.4140    0.7872    0.9908 C   0  0  0  0  0  0  0  0  0  0  0  0
   -0.2850   -0.1414    0.2837 C   0  0  0  0  0  0  0  0  0  0  0  0
   -1.6464   -0.0096    0.0449 C   0  0  0  0  0  0  0  0  0  0  0  0
   -2.2601   -0.9888   -0.6721 C   0  0  0  0  0  0  0  0  0  0  0  0
   -3.6126   -0.9060   -0.9376 O   0  0  0  0  0  0  0  0  0  0  0  0
   -4.3573    0.1777   -0.4748 C   0  0  0  0  0  0  0  0  0  0  0  0
   -5.4328    0.0019    0.3860 C   0  0  0  0  0  0  0  0  0  0  0  0
   -6.1435    1.0950    0.8212 C   0  0  0  0  0  0  0  0  0  0  0  0
   -5.8098    2.3540    0.4211 C   0  0  0  0  0  0  0  0  0  0  0  0
   -6.5353    3.4198    0.8708 F   0  0  0  0  0  0  0  0  0  0  0  0
   -4.7492    2.5537   -0.4308 C   0  0  0  0  0  0  0  0  0  0  0  0
   -4.0330    1.4631   -0.8706 C   0  0  0  0  0  0  0  0  0  0  0  0
   -2.9761    1.6112   -1.7138 F   0  0  0  0  0  0  0  0  0  0  0  0
   -1.5699   -2.0785   -1.1511 C   0  0  0  0  0  0  0  0  0  0  0  0
   -2.1894   -2.9419   -1.8015 O   0  0  0  0  0  0  0  0  0  0  0  0
   -0.2485   -2.1978   -0.9142 N   0  0  0  0  0  0  0  0  0  0  0  0
    0.4354   -3.3616   -1.4382 C   0  0  0  0  0  0  0  0  0  0  0  0
    0.3823   -1.2440   -0.2082 C   0  0  0  0  0  0  0  0  0  0  0  0
    1.6957   -1.3413    0.0397 N   0  0  0  0  0  0  0  0  0  0  0  0
  1  2  1  0
  2  3  1  0
  2  4  1  0
  4  5  1  0
  5  6  1  0
  6  7  1  0
  7  8  2  0
  7  9  1  0
  9 10  1  0
 10 11  1  0
 11 12  2  0
 12 13  1  0
 13 14  2  0
 14 15  1  0
 15 16  2  0
 18 17  1  1
 18 19  1  0
 19 20  1  0
 20 21  1  0
 21 22  2  0
 22 23  1  0
 23 24  2  0
 18 25  1  0
 25 26  1  0
 26 27  2  0
 27 28  1  0
 28 29  2  0
 29 30  1  0
 30 31  2  0
 31 32  1  0
 32 33  1  0
 33 34  2  0
 34 35  1  0
 35 36  2  0
 36 37  1  0
 36 38  1  0
 38 39  2  0
 39 40  1  0
 31 41  1  0
 41 42  2  0
 41 43  1  0
 43 44  1  0
 43 45  1  0
 45 46  2  0
 16 11  1  0
 24 20  1  0
 46 26  1  0
 45 29  1  0
 39 33  1  0
M  END

