
     RDKit          3D

 11 10  0  0  0  0  0  0  0  0999 V2000
    4.2112   -0.0441    0.8123 C   0  0  0  0  0  0  0  0  0  0  0  0
    3.4701    1.2077    0.4265 C   0  0  0  0  0  0  0  0  0  0  0  0
    2.0558    1.0662    0.7106 N   0  0  0  0  0  0  0  0  0  0  0  0
    1.2568    0.0496    0.1117 C   0  0  0  0  0  0  0  0  0  0  0  0
    1.8487   -0.7223   -0.6811 O   0  0  0  0  0  0  0  0  0  0  0  0
   -0.1875   -0.0497    0.4384 C   0  0  0  0  0  0  0  0  0  0  0  0
   -0.7857   -1.1858   -0.3139 C   0  0  0  0  0  0  0  0  0  0  0  0
   -2.2444   -1.2671    0.0315 C   0  0  0  0  0  0  0  0  0  0  0  0
   -2.9728   -0.0281   -0.3230 C   0  0  0  0  0  0  0  0  0  0  0  0
   -4.3471    0.0779   -0.0728 N   0  0  0  0  0  0  0  0  0  0  0  0
   -2.3052    0.8958   -0.8463 O   0  0  0  0  0  0  0  0  0  0  0  0
  1  2  1  0
  2  3  1  0
  3  4  1  0
  4  5  2  0
  4  6  1  0
  6  7  1  0
  7  8  1  0
  8  9  1  0
  9 10  1  0
  9 11  2  0
M  END

