
     RDKit          3D

 42 44  0  0  0  0  0  0  0  0999 V2000
   -3.6315   -1.3767    1.4645 C   0  0  0  0  0  0  0  0  0  0  0  0
   -3.6708   -0.2045    0.5307 C   0  0  0  0  0  0  0  0  0  0  0  0
   -4.9749   -0.0300   -0.1788 C   0  0  0  0  0  0  0  0  0  0  0  0
   -2.4810   -0.1300   -0.3848 C   0  0  0  0  0  0  0  0  0  0  0  0
   -1.2369   -0.0151    0.3495 N   0  0  0  0  0  0  0  0  0  0  0  0
   -0.0138    0.0665   -0.3606 C   0  0  0  0  0  0  0  0  0  0  0  0
   -0.0633    0.0350   -1.6158 O   0  0  0  0  0  0  0  0  0  0  0  0
    1.3073    0.1856    0.2839 C   0  0  0  0  0  0  0  0  0  0  0  0
    2.4108    0.2506   -0.7453 C   0  0  0  0  0  0  0  0  0  0  0  0
    3.6980    0.3687   -0.0275 C   0  0  0  0  0  0  0  0  0  0  0  0
    4.9341    0.4518   -0.7205 N   0  0  0  0  0  0  0  0  0  0  0  0
    3.7220    0.3980    1.2189 O   0  0  0  0  0  0  0  0  0  0  0  0
   -5.6309   -0.6147   -2.2634 C   0  0  0  0  0  0  0  0  0  0  0  0
   -4.6288   -0.8284   -0.9655 C   0  0  2  0  0  0  0  0  0  0  0  0
   -5.0675    0.6078   -0.2880 C   0  0  0  0  0  0  0  0  0  0  0  0
   -6.4842    0.3984   -0.1142 N   0  0  0  0  0  0  0  0  0  0  0  0
   -7.0389   -0.1132    0.9458 N   0  0  0  0  0  0  0  0  0  0  0  0
   -8.3677   -0.1543    0.7503 C   0  0  0  0  0  0  0  0  0  0  0  0
   -8.5558    0.3614   -0.4817 N   0  0  0  0  0  0  0  0  0  0  0  0
   -7.4065    0.6987   -1.0095 N   0  0  0  0  0  0  0  0  0  0  0  0
   -3.3961   -0.2079   -1.7064 N   0  0  0  0  0  0  0  0  0  0  0  0
   -2.2380   -0.2096   -0.8549 C   0  0  0  0  0  0  0  0  0  0  0  0
   -2.2483   -0.6874    0.4024 N   0  0  0  0  0  0  0  0  0  0  0  0
   -1.1374   -0.6723    1.1749 C   0  0  0  0  0  0  0  0  0  0  0  0
    0.0541   -0.1632    0.6989 C   0  0  0  0  0  0  0  0  0  0  0  0
    1.2116   -0.1205    1.4326 C   0  0  0  0  0  0  0  0  0  0  0  0
    2.3870    0.3956    0.9263 C   0  0  0  0  0  0  0  0  0  0  0  0
    3.5813    0.4644    1.6179 O   0  0  0  0  0  0  0  0  0  0  0  0
    4.7517   -0.1414    1.2324 C   0  0  0  0  0  0  0  0  0  0  0  0
    5.8947    0.5730    0.9758 C   0  0  0  0  0  0  0  0  0  0  0  0
    7.0746   -0.0468    0.5863 C   0  0  0  0  0  0  0  0  0  0  0  0
    7.1522   -1.4111    0.4393 C   0  0  0  0  0  0  0  0  0  0  0  0
    8.3221   -2.0242    0.0533 F   0  0  0  0  0  0  0  0  0  0  0  0
    6.0117   -2.1335    0.6945 C   0  0  0  0  0  0  0  0  0  0  0  0
    4.8363   -1.5032    1.0836 C   0  0  0  0  0  0  0  0  0  0  0  0
    3.6985   -2.2201    1.3385 F   0  0  0  0  0  0  0  0  0  0  0  0
    2.3505    0.8726   -0.3630 C   0  0  0  0  0  0  0  0  0  0  0  0
    3.4117    1.3465   -0.8412 O   0  0  0  0  0  0  0  0  0  0  0  0
    1.2242    0.8451   -1.1143 N   0  0  0  0  0  0  0  0  0  0  0  0
    1.2243    1.3553   -2.4648 C   0  0  0  0  0  0  0  0  0  0  0  0
    0.0743    0.3279   -0.5864 C   0  0  0  0  0  0  0  0  0  0  0  0
   -1.0608    0.2836   -1.2993 N   0  0  0  0  0  0  0  0  0  0  0  0
  1  2  1  0
  2  3  1  0
  2  4  1  0
  4  5  1  0
  5  6  1  0
  6  7  2  0
  6  8  1  0
  8  9  1  0
  9 10  1  0
 10 11  1  0
 10 12  2  0
 14 13  1  6
 14 15  1  0
 15 16  1  0
 16 17  1  0
 17 18  2  0
 18 19  1  0
 19 20  2  0
 14 21  1  0
 21 22  1  0
 22 23  2  0
 23 24  1  0
 24 25  2  0
 25 26  1  0
 26 27  2  0
 27 28  1  0
 28 29  1  0
 29 30  2  0
 30 31  1  0
 31 32  2  0
 32 33  1  0
 32 34  1  0
 34 35  2  0
 35 36  1  0
 27 37  1  0
 37 38  2  0
 37 39  1  0
 39 40  1  0
 39 41  1  0
 41 42  2  0
 20 16  1  0
 42 22  1  0
 41 25  1  0
 35 29  1  0
M  END

