
     RDKit          3D

 44 46  0  0  0  0  0  0  0  0999 V2000
    4.6925    1.6845   -0.5056 C   0  0  0  0  0  0  0  0  0  0  0  0
    4.8452    1.6125    1.1367 C   0  0  2  0  0  0  0  0  0  0  0  0
    3.9724    0.2291    1.3114 C   0  0  0  0  0  0  0  0  0  0  0  0
    4.6862   -0.7751    0.5682 N   0  0  0  0  0  0  0  0  0  0  0  0
    4.4358   -0.9710   -0.7088 N   0  0  0  0  0  0  0  0  0  0  0  0
    5.2074   -1.9437   -1.1957 C   0  0  0  0  0  0  0  0  0  0  0  0
    5.9649   -2.3586   -0.1586 N   0  0  0  0  0  0  0  0  0  0  0  0
    5.6212   -1.6266    0.8960 N   0  0  0  0  0  0  0  0  0  0  0  0
    3.7051    2.5834    1.4352 N   0  0  0  0  0  0  0  0  0  0  0  0
    2.4074    2.3023    1.0288 C   0  0  0  0  0  0  0  0  0  0  0  0
    1.4949    3.2764    1.3672 N   0  0  0  0  0  0  0  0  0  0  0  0
    0.2148    3.1336    1.0450 C   0  0  0  0  0  0  0  0  0  0  0  0
   -0.1889    2.0015    0.3696 C   0  0  0  0  0  0  0  0  0  0  0  0
   -1.5121    1.8003    0.0096 C   0  0  0  0  0  0  0  0  0  0  0  0
   -1.9349    0.6877   -0.6579 C   0  0  0  0  0  0  0  0  0  0  0  0
   -3.2840    0.5961   -0.9652 O   0  0  0  0  0  0  0  0  0  0  0  0
   -4.0816   -0.4394   -0.4989 C   0  0  0  0  0  0  0  0  0  0  0  0
   -3.6149   -1.4605    0.3024 C   0  0  0  0  0  0  0  0  0  0  0  0
   -4.4743   -2.4643    0.7309 C   0  0  0  0  0  0  0  0  0  0  0  0
   -5.8076   -2.4855    0.3814 C   0  0  0  0  0  0  0  0  0  0  0  0
   -6.6089   -3.4859    0.8235 F   0  0  0  0  0  0  0  0  0  0  0  0
   -6.2741   -1.4674   -0.4179 C   0  0  0  0  0  0  0  0  0  0  0  0
   -5.4163   -0.4673   -0.8443 C   0  0  0  0  0  0  0  0  0  0  0  0
   -5.9190    0.5232   -1.6353 F   0  0  0  0  0  0  0  0  0  0  0  0
   -1.0116   -0.2522   -0.9759 C   0  0  0  0  0  0  0  0  0  0  0  0
   -1.3929   -1.2852   -1.5934 O   0  0  0  0  0  0  0  0  0  0  0  0
    0.2997   -0.0798   -0.6334 N   0  0  0  0  0  0  0  0  0  0  0  0
    1.2227   -1.1348   -1.0089 C   0  0  0  0  0  0  0  0  0  0  0  0
    0.7234    1.0124    0.0233 C   0  0  0  0  0  0  0  0  0  0  0  0
    2.0275    1.1945    0.3706 N   0  0  0  0  0  0  0  0  0  0  0  0
    1.7371    0.2610    2.3883 O   0  0  0  0  0  1  0  0  0  0  0  0
    3.0589    0.0632    2.0731 C   0  0  0  0  0  0  0  0  0  0  0  0
    3.9740    0.4050    2.8413 O   0  0  0  0  0  0  0  0  0  0  0  0
    3.4119   -0.5774    0.7781 C   0  0  0  0  0  0  0  0  0  0  0  0
    2.1897   -0.9277   -0.0292 C   0  0  0  0  0  0  0  0  0  0  0  0
    1.3996    0.3251   -0.3256 C   0  0  0  0  0  0  0  0  0  0  0  0
    0.1903    0.0009   -1.1211 C   0  0  0  0  0  0  0  0  0  0  0  0
   -0.0613   -1.1683   -1.4547 O   0  0  0  0  0  0  0  0  0  0  0  0
   -0.6745    1.0313   -1.4975 N   0  0  0  0  0  0  0  0  0  0  0  0
   -1.8853    0.8633   -2.2701 C   0  0  0  0  0  0  0  0  0  0  0  0
   -2.8881   -0.0302   -1.6251 C   0  0  0  0  0  0  0  0  0  0  0  0
   -3.3342    0.4540   -0.3075 C   0  0  0  0  0  0  0  0  0  0  0  0
   -4.2589   -0.2612    0.4145 O   0  0  0  0  0  1  0  0  0  0  0  0
   -2.8593    1.5175    0.1355 O   0  0  0  0  0  0  0  0  0  0  0  0
  2  1  1  6
  2  3  1  0
  3  4  1  0
  4  5  1  0
  5  6  2  0
  6  7  1  0
  7  8  2  0
  2  9  1  0
  9 10  1  0
 10 11  2  0
 11 12  1  0
 12 13  2  0
 13 14  1  0
 14 15  2  0
 15 16  1  0
 16 17  1  0
 17 18  2  0
 18 19  1  0
 19 20  2  0
 20 21  1  0
 20 22  1  0
 22 23  2  0
 23 24  1  0
 15 25  1  0
 25 26  2  0
 25 27  1  0
 27 28  1  0
 27 29  1  0
 29 30  2  0
 31 32  1  0
 32 33  2  0
 32 34  1  0
 34 35  1  0
 35 36  1  0
 36 37  1  0
 37 38  2  0
 37 39  1  0
 39 40  1  0
 40 41  1  0
 41 42  1  0
 42 43  1  0
 42 44  2  0
  8  4  1  0
 30 10  1  0
 29 13  1  0
 23 17  1  0
M  RAD  2  31   2  43   2
M  END

