
     RDKit          3D

 13 12  0  0  0  0  0  0  0  0999 V2000
   -4.3438    1.0752   -0.8182 C   0  0  0  0  0  0  0  0  0  0  0  0
   -4.0263    1.0633    0.8084 C   0  0  1  0  0  0  0  0  0  0  0  0
   -5.2102    0.1464    1.0860 O   0  0  0  0  0  0  0  0  0  0  0  0
   -2.9799   -0.1950    0.6705 C   0  0  0  0  0  0  0  0  0  0  0  0
   -1.7497    0.4876    0.3961 N   0  0  0  0  0  0  0  0  0  0  0  0
   -0.5609   -0.2587    0.2040 C   0  0  0  0  0  0  0  0  0  0  0  0
   -0.6855   -1.5027    0.2929 O   0  0  0  0  0  0  0  0  0  0  0  0
    0.6819    0.4537   -0.0744 C   0  0  0  0  0  0  0  0  0  0  0  0
    1.8858   -0.3877   -0.2645 C   0  0  0  0  0  0  0  0  0  0  0  0
    3.0565    0.5312   -0.5396 C   0  0  0  0  0  0  0  0  0  0  0  0
    4.2592   -0.2933   -0.7304 C   0  0  0  0  0  0  0  0  0  0  0  0
    5.4860    0.4046   -1.0047 N   0  0  0  0  0  0  0  0  0  0  0  0
    4.1870   -1.5246   -0.6526 O   0  0  0  0  0  0  0  0  0  0  0  0
  2  1  1  6
  2  3  1  0
  2  4  1  0
  4  5  1  0
  5  6  1  0
  6  7  2  0
  6  8  1  0
  8  9  1  0
  9 10  1  0
 10 11  1  0
 11 12  1  0
 11 13  2  0
M  END

