
     RDKit          3D

 14 13  0  0  0  0  0  0  0  0999 V2000
    5.6929    1.9554    2.3035 C   0  0  0  0  0  0  0  0  0  0  0  0
    4.9683    2.9724    0.9997 S   0  0  0  0  0  0  0  0  0  0  0  0
    3.9420    2.0022   -0.0997 C   0  0  0  0  0  0  0  0  0  0  0  0
    2.7063    1.4516    0.5842 C   0  0  0  0  0  0  0  0  0  0  0  0
    1.9021    0.6483   -0.4212 C   0  0  0  0  0  0  0  0  0  0  0  0
    0.7373    0.1457    0.2772 N   0  0  0  0  0  0  0  0  0  0  0  0
   -0.2603   -0.6526   -0.3224 C   0  0  0  0  0  0  0  0  0  0  0  0
   -0.0772   -0.9207   -1.5607 O   0  0  0  0  0  0  0  0  0  0  0  0
   -1.4518   -1.1685    0.3837 C   0  0  0  0  0  0  0  0  0  0  0  0
   -2.2854   -1.9806   -0.5792 C   0  0  0  0  0  0  0  0  0  0  0  0
   -3.5209   -2.5335    0.1057 C   0  0  0  0  0  0  0  0  0  0  0  0
   -4.3072   -1.3204    0.6016 C   0  0  0  0  0  0  0  0  0  0  0  0
   -4.6329   -0.5114   -0.6420 C   0  0  0  0  0  0  0  0  0  0  0  0
   -3.4132   -0.0878   -1.3328 N   0  0  0  0  0  4  0  0  0  0  0  0
  1  2  1  0
  2  3  1  0
  3  4  1  0
  4  5  1  0
  5  6  1  0
  6  7  1  0
  7  8  2  0
  7  9  1  0
  9 10  1  0
 10 11  1  0
 11 12  1  0
 12 13  1  0
 13 14  1  0
M  CHG  1  14   1
M  END

