
     RDKit          3D

 50 53  0  0  0  0  0  0  0  0999 V2000
    3.5144   -0.7901    3.6913 C   0  0  0  0  0  0  0  0  0  0  0  0
    4.7694   -0.8313    2.6072 C   0  0  1  0  0  0  0  0  0  0  0  0
    3.9654   -1.5214    1.5208 O   0  0  0  0  0  0  0  0  0  0  0  0
    4.5081    0.6924    2.0489 C   0  0  0  0  0  0  0  0  0  0  0  0
    3.1702    0.7716    1.5062 C   0  0  0  0  0  0  0  0  0  0  0  0
    2.3461   -0.1609    1.5045 O   0  0  0  0  0  0  0  0  0  0  0  0
    2.7677    2.0276    0.9254 N   0  0  0  0  0  0  0  0  0  0  0  0
    1.4439    2.1795    0.3635 C   0  0  0  0  0  0  0  0  0  0  0  0
    1.2506    1.2096   -0.7371 C   0  0  0  0  0  0  0  0  0  0  0  0
    2.0907    0.3895   -1.1234 O   0  0  0  0  0  0  0  0  0  0  0  0
   -0.0151    1.2247   -1.4081 N   0  0  0  0  0  0  0  0  0  0  0  0
   -0.2745    0.3062   -2.4917 C   0  0  0  0  0  0  0  0  0  0  0  0
   -1.6516    0.5078   -3.0318 C   0  0  0  0  0  0  0  0  0  0  0  0
   -2.7156    0.2917   -2.0122 C   0  0  0  0  0  0  0  0  0  0  0  0
   -3.3050   -0.9275   -1.7824 C   0  0  0  0  0  0  0  0  0  0  0  0
   -4.2806   -1.0431   -0.8224 C   0  0  0  0  0  0  0  0  0  0  0  0
   -4.6808    0.0537   -0.0799 C   0  0  0  0  0  0  0  0  0  0  0  0
   -5.6700   -0.1292    0.8735 O   0  0  0  0  0  0  0  0  0  0  0  0
   -4.1053    1.2919   -0.2898 C   0  0  0  0  0  0  0  0  0  0  0  0
   -3.1282    1.3710   -1.2624 C   0  0  0  0  0  0  0  0  0  0  0  0
   -5.6582   -2.7697    1.4386 C   0  0  0  0  0  0  0  0  0  0  0  0
   -4.5895   -1.4965    1.1652 C   0  0  2  0  0  0  0  0  0  0  0  0
   -5.3450   -1.1444   -0.2528 C   0  0  0  0  0  0  0  0  0  0  0  0
   -4.6506   -0.0120   -0.8191 N   0  0  0  0  0  0  0  0  0  0  0  0
   -4.9059    1.2661   -0.5916 N   0  0  0  0  0  0  0  0  0  0  0  0
   -4.0888    2.0567   -1.3017 C   0  0  0  0  0  0  0  0  0  0  0  0
   -3.2901    1.2315   -2.0015 N   0  0  0  0  0  0  0  0  0  0  0  0
   -3.6503   -0.0007   -1.6918 N   0  0  0  0  0  0  0  0  0  0  0  0
   -3.5299   -2.4408    0.5128 N   0  0  0  0  0  0  0  0  0  0  0  0
   -2.2376   -1.8866    0.3812 C   0  0  0  0  0  0  0  0  0  0  0  0
   -1.2225   -2.5791   -0.1838 N   0  0  0  0  0  0  0  0  0  0  0  0
   -0.0081   -2.0269   -0.2638 C   0  0  0  0  0  0  0  0  0  0  0  0
    0.2482   -0.7600    0.2157 C   0  0  0  0  0  0  0  0  0  0  0  0
    1.4705   -0.1487    0.1592 C   0  0  0  0  0  0  0  0  0  0  0  0
    1.6240    1.1280    0.6700 C   0  0  0  0  0  0  0  0  0  0  0  0
    2.8773    1.7424    0.6066 O   0  0  0  0  0  0  0  0  0  0  0  0
    3.9536    1.0788    0.0380 C   0  0  0  0  0  0  0  0  0  0  0  0
    4.5912    1.6220   -1.0538 C   0  0  0  0  0  0  0  0  0  0  0  0
    5.6543    0.9435   -1.5969 C   0  0  0  0  0  0  0  0  0  0  0  0
    6.0723   -0.2465   -1.0660 C   0  0  0  0  0  0  0  0  0  0  0  0
    7.1264   -0.8918   -1.6267 F   0  0  0  0  0  0  0  0  0  0  0  0
    5.4186   -0.7719    0.0279 C   0  0  0  0  0  0  0  0  0  0  0  0
    4.3515   -0.1050    0.5846 C   0  0  0  0  0  0  0  0  0  0  0  0
    3.7501   -0.6753    1.6611 F   0  0  0  0  0  0  0  0  0  0  0  0
    0.5542    1.7593    1.2229 C   0  0  0  0  0  0  0  0  0  0  0  0
    0.6662    2.9039    1.6875 O   0  0  0  0  0  0  0  0  0  0  0  0
   -0.6353    1.1465    1.2702 N   0  0  0  0  0  0  0  0  0  0  0  0
   -1.7722    1.8163    1.8573 C   0  0  0  0  0  0  0  0  0  0  0  0
   -0.7904   -0.0766    0.7830 C   0  0  0  0  0  0  0  0  0  0  0  0
   -1.9840   -0.6625    0.8430 N   0  0  0  0  0  0  0  0  0  0  0  0
  2  1  1  1
  2  3  1  0
  2  4  1  0
  4  5  1  0
  5  6  2  0
  5  7  1  0
  7  8  1  0
  8  9  1  0
  9 10  2  0
  9 11  1  0
 11 12  1  0
 12 13  1  0
 13 14  1  0
 14 15  2  0
 15 16  1  0
 16 17  2  0
 17 18  1  0
 17 19  1  0
 19 20  2  0
 22 21  1  1
 22 23  1  0
 23 24  1  0
 24 25  1  0
 25 26  2  0
 26 27  1  0
 27 28  2  0
 22 29  1  0
 29 30  1  0
 30 31  2  0
 31 32  1  0
 32 33  2  0
 33 34  1  0
 34 35  2  0
 35 36  1  0
 36 37  1  0
 37 38  2  0
 38 39  1  0
 39 40  2  0
 40 41  1  0
 40 42  1  0
 42 43  2  0
 43 44  1  0
 35 45  1  0
 45 46  2  0
 45 47  1  0
 47 48  1  0
 47 49  1  0
 49 50  2  0
 20 14  1  0
 28 24  1  0
 50 30  1  0
 49 33  1  0
 43 37  1  0
M  END

