
     RDKit          3D

 53 56  0  0  0  0  0  0  0  0999 V2000
   -4.1858    3.7750   -0.6423 C   0  0  0  0  0  0  0  0  0  0  0  0
   -3.6525    2.4432   -0.1341 C   0  0  0  0  0  0  0  0  0  0  0  0
   -3.1245    1.6636   -1.5141 C   0  0  2  0  0  0  0  0  0  0  0  0
   -4.6535    1.7166   -2.1769 C   0  0  0  0  0  0  0  0  0  0  0  0
   -3.4228    0.1637   -0.8418 C   0  0  0  0  0  0  0  0  0  0  0  0
   -2.6080    0.0951    0.3238 N   0  0  0  0  0  0  0  0  0  0  0  0
   -1.2117    0.1662    0.3856 C   0  0  0  0  0  0  0  0  0  0  0  0
   -0.6228    0.2946   -0.6854 O   0  0  0  0  0  0  0  0  0  0  0  0
   -0.4005    0.0946    1.6650 C   0  0  1  0  0  0  0  0  0  0  0  0
   -0.7252   -1.3590    2.2856 C   0  0  0  0  0  0  0  0  0  0  0  0
   -0.3116   -2.3539    1.2664 C   0  0  0  0  0  0  0  0  0  0  0  0
   -0.4413   -3.7338    1.4016 C   0  0  0  0  0  0  0  0  0  0  0  0
    0.0476   -4.2799    0.2702 N   0  0  0  0  0  0  0  0  0  0  0  0
    0.4684   -3.3363   -0.5519 C   0  0  0  0  0  0  0  0  0  0  0  0
    0.2428   -2.1774    0.0674 N   0  0  0  0  0  0  0  0  0  0  0  0
    0.9671    0.1121    1.4729 N   0  0  0  0  0  0  0  0  0  0  0  0
    2.0004    0.2161    0.6187 C   0  0  0  0  0  0  0  0  0  0  0  0
    1.7535    0.3876   -0.6157 O   0  0  0  0  0  0  0  0  0  0  0  0
    3.4666    0.1379    1.0429 C   0  0  0  0  0  0  0  0  0  0  0  0
    4.2947    0.2544   -0.1834 C   0  0  0  0  0  0  0  0  0  0  0  0
    4.1152    1.5158   -0.9324 C   0  0  0  0  0  0  0  0  0  0  0  0
    3.2700    2.5130   -0.4761 O   0  0  0  0  0  1  0  0  0  0  0  0
    4.7338    1.6908   -1.9892 O   0  0  0  0  0  0  0  0  0  0  0  0
    4.0712   -1.6865    1.9467 C   0  0  0  0  0  0  0  0  0  0  0  0
    4.8859   -1.0416    0.6557 C   0  0  2  0  0  0  0  0  0  0  0  0
    3.8464    0.2315    0.4984 C   0  0  0  0  0  0  0  0  0  0  0  0
    4.3966    0.9597   -0.6254 N   0  0  0  0  0  0  0  0  0  0  0  0
    5.2885    1.9113   -0.5017 N   0  0  0  0  0  0  0  0  0  0  0  0
    5.6264    2.4188   -1.7050 C   0  0  0  0  0  0  0  0  0  0  0  0
    4.8915    1.7272   -2.5939 N   0  0  0  0  0  0  0  0  0  0  0  0
    4.1493    0.8431   -1.9128 N   0  0  0  0  0  0  0  0  0  0  0  0
    4.1718   -1.9561   -0.4023 N   0  0  0  0  0  0  0  0  0  0  0  0
    2.7950   -1.9618   -0.5071 C   0  0  0  0  0  0  0  0  0  0  0  0
    2.1059   -2.7088   -1.3833 N   0  0  0  0  0  0  0  0  0  0  0  0
    0.7629   -2.6887   -1.4509 C   0  0  0  0  0  0  0  0  0  0  0  0
    0.0485   -1.8901   -0.6117 C   0  0  0  0  0  0  0  0  0  0  0  0
   -1.3499   -1.8301   -0.6388 C   0  0  0  0  0  0  0  0  0  0  0  0
   -1.9565   -0.9855    0.2589 C   0  0  0  0  0  0  0  0  0  0  0  0
   -3.3274   -0.8932    0.2696 O   0  0  0  0  0  0  0  0  0  0  0  0
   -4.0272    0.2732    0.0395 C   0  0  0  0  0  0  0  0  0  0  0  0
   -3.4285    1.4847   -0.2286 C   0  0  0  0  0  0  0  0  0  0  0  0
   -4.1902    2.6140   -0.4495 C   0  0  0  0  0  0  0  0  0  0  0  0
   -5.5688    2.5869   -0.4136 C   0  0  0  0  0  0  0  0  0  0  0  0
   -6.3149    3.7149   -0.6346 F   0  0  0  0  0  0  0  0  0  0  0  0
   -6.1649    1.3722   -0.1449 C   0  0  0  0  0  0  0  0  0  0  0  0
   -5.4064    0.2418    0.0764 C   0  0  0  0  0  0  0  0  0  0  0  0
   -6.0313   -0.9530    0.3415 F   0  0  0  0  0  0  0  0  0  0  0  0
   -1.2270   -0.2342    1.1426 C   0  0  0  0  0  0  0  0  0  0  0  0
   -1.8309    0.5144    1.9338 O   0  0  0  0  0  0  0  0  0  0  0  0
    0.1172   -0.2902    1.1705 N   0  0  0  0  0  0  0  0  0  0  0  0
    0.8529    0.5241    2.1244 C   0  0  0  0  0  0  0  0  0  0  0  0
    0.7460   -1.1158    0.2954 C   0  0  0  0  0  0  0  0  0  0  0  0
    2.0678   -1.1825    0.3098 N   0  0  0  0  0  0  0  0  0  0  0  0
  1  2  1  0
  2  3  1  0
  3  4  1  6
  3  5  1  0
  5  6  1  0
  6  7  1  0
  7  8  2  0
  7  9  1  0
  9 10  1  1
 10 11  1  0
 11 12  2  0
 12 13  1  0
 13 14  1  0
 14 15  2  0
  9 16  1  0
 16 17  1  0
 17 18  2  0
 17 19  1  0
 19 20  1  0
 20 21  1  0
 21 22  1  0
 21 23  2  0
 25 24  1  1
 25 26  1  0
 26 27  1  0
 27 28  1  0
 28 29  2  0
 29 30  1  0
 30 31  2  0
 25 32  1  0
 32 33  1  0
 33 34  2  0
 34 35  1  0
 35 36  2  0
 36 37  1  0
 37 38  2  0
 38 39  1  0
 39 40  1  0
 40 41  2  0
 41 42  1  0
 42 43  2  0
 43 44  1  0
 43 45  1  0
 45 46  2  0
 46 47  1  0
 38 48  1  0
 48 49  2  0
 48 50  1  0
 50 51  1  0
 50 52  1  0
 52 53  2  0
 15 11  1  0
 31 27  1  0
 53 33  1  0
 52 36  1  0
 46 40  1  0
M  RAD  1  22   2
M  END

