
     RDKit          3D

 58 62  0  0  0  0  0  0  0  0999 V2000
    6.0397   -1.5535   -0.3797 C   0  0  0  0  0  0  0  0  0  0  0  0
    4.5151   -1.5256   -1.0188 C   0  0  2  0  0  0  0  0  0  0  0  0
    4.6108   -0.0009   -1.6209 C   0  0  0  0  0  0  0  0  0  0  0  0
    4.8539    0.9235   -0.5978 N   0  0  0  0  0  0  0  0  0  0  0  0
    6.0988    1.2583   -0.2334 N   0  0  0  0  0  0  0  0  0  0  0  0
    6.0893    2.1542    0.7595 C   0  0  0  0  0  0  0  0  0  0  0  0
    4.7947    2.3822    1.0191 N   0  0  0  0  0  0  0  0  0  0  0  0
    4.0766    1.6367    0.1968 N   0  0  0  0  0  0  0  0  0  0  0  0
    3.8469   -1.0782    0.3359 N   0  0  0  0  0  0  0  0  0  0  0  0
    2.4320   -0.9146    0.2604 C   0  0  0  0  0  0  0  0  0  0  0  0
    1.8015   -0.5340    1.3823 N   0  0  0  0  0  0  0  0  0  0  0  0
    0.4537   -0.3517    1.4096 C   0  0  0  0  0  0  0  0  0  0  0  0
   -0.2941   -0.5583    0.2688 C   0  0  0  0  0  0  0  0  0  0  0  0
   -1.6630   -0.3882    0.2404 C   0  0  0  0  0  0  0  0  0  0  0  0
   -2.3694   -0.6062   -0.9231 C   0  0  0  0  0  0  0  0  0  0  0  0
   -3.7390   -0.4375   -0.9577 O   0  0  0  0  0  0  0  0  0  0  0  0
   -4.4012   -0.0451    0.1936 C   0  0  0  0  0  0  0  0  0  0  0  0
   -5.3841   -0.7927    0.7924 C   0  0  0  0  0  0  0  0  0  0  0  0
   -6.0233   -0.3730    1.9379 C   0  0  0  0  0  0  0  0  0  0  0  0
   -5.6712    0.8359    2.5089 C   0  0  0  0  0  0  0  0  0  0  0  0
   -6.2922    1.2821    3.6538 F   0  0  0  0  0  0  0  0  0  0  0  0
   -4.6856    1.6046    1.9242 C   0  0  0  0  0  0  0  0  0  0  0  0
   -4.0491    1.1612    0.7624 C   0  0  0  0  0  0  0  0  0  0  0  0
   -3.0845    1.9315    0.2053 F   0  0  0  0  0  0  0  0  0  0  0  0
   -1.6834   -1.0003   -2.0690 C   0  0  0  0  0  0  0  0  0  0  0  0
   -2.3515   -1.1939   -3.1219 O   0  0  0  0  0  0  0  0  0  0  0  0
   -0.3527   -1.1545   -1.9990 N   0  0  0  0  0  0  0  0  0  0  0  0
    0.3496   -1.5653   -3.1997 C   0  0  0  0  0  0  0  0  0  0  0  0
    0.3654   -0.9496   -0.8794 C   0  0  0  0  0  0  0  0  0  0  0  0
    1.7161   -1.1174   -0.8507 N   0  0  0  0  0  0  0  0  0  0  0  0
   -6.7462    2.7679   -1.7320 O   0  0  0  0  0  1  0  0  0  0  0  0
   -6.3827    1.7166   -0.9066 C   0  0  0  0  0  0  0  0  0  0  0  0
   -6.2374    0.5914   -1.4112 O   0  0  0  0  0  0  0  0  0  0  0  0
   -6.1880    1.9748    0.5150 C   0  0  0  0  0  0  0  0  0  0  0  0
   -4.8147    2.0496    1.0189 C   0  0  0  0  0  0  0  0  0  0  0  0
   -4.0218    0.8146    0.8436 C   0  0  0  0  0  0  0  0  0  0  0  0
   -4.4980   -0.2501    0.3364 O   0  0  0  0  0  0  0  0  0  0  0  0
   -2.7178    0.7093    1.2090 N   0  0  0  0  0  0  0  0  0  0  0  0
   -1.8717   -0.5767    1.0348 C   0  0  1  0  0  0  0  0  0  0  0  0
   -2.4891   -0.9318   -0.4671 C   0  0  0  0  0  0  0  0  0  0  0  0
   -1.7168   -2.2166   -0.7914 C   0  0  0  0  0  0  0  0  0  0  0  0
   -1.9701   -3.2686    0.1965 C   0  0  0  0  0  0  0  0  0  0  0  0
   -1.3218   -4.4821    0.0437 O   0  0  0  0  0  1  0  0  0  0  0  0
   -2.7334   -3.1432    1.1692 O   0  0  0  0  0  0  0  0  0  0  0  0
   -0.5186    0.0018    0.4658 C   0  0  0  0  0  0  0  0  0  0  0  0
   -0.4311    1.2075    0.2917 O   0  0  0  0  0  0  0  0  0  0  0  0
    0.5108   -0.9166    0.1939 N   0  0  0  0  0  0  0  0  0  0  0  0
    1.7997   -0.4885   -0.3359 C   0  0  0  0  0  0  0  0  0  0  0  0
    2.3702    0.4817    0.6978 C   0  0  0  0  0  0  0  0  0  0  0  0
    3.6784    0.9066    0.1444 C   0  0  0  0  0  0  0  0  0  0  0  0
    3.9193    2.1202   -0.4628 C   0  0  0  0  0  0  0  0  0  0  0  0
    5.2264    2.1838   -0.8581 N   0  0  0  0  0  0  0  0  0  0  0  0
    5.8430    1.0423   -0.5236 C   0  0  0  0  0  0  0  0  0  0  0  0
    7.1355    0.6009   -0.6864 C   0  0  0  0  0  0  0  0  0  0  0  0
    7.4908   -0.6620   -0.2216 C   0  0  0  0  0  0  0  0  0  0  0  0
    6.5439   -1.4690    0.4006 C   0  0  0  0  0  0  0  0  0  0  0  0
    5.2496   -1.0071    0.5545 C   0  0  0  0  0  0  0  0  0  0  0  0
    4.8917    0.2434    0.0974 C   0  0  0  0  0  0  0  0  0  0  0  0
  2  1  1  1
  2  3  1  0
  3  4  1  0
  4  5  1  0
  5  6  2  0
  6  7  1  0
  7  8  2  0
  2  9  1  0
  9 10  1  0
 10 11  2  0
 11 12  1  0
 12 13  2  0
 13 14  1  0
 14 15  2  0
 15 16  1  0
 16 17  1  0
 17 18  2  0
 18 19  1  0
 19 20  2  0
 20 21  1  0
 20 22  1  0
 22 23  2  0
 23 24  1  0
 15 25  1  0
 25 26  2  0
 25 27  1  0
 27 28  1  0
 27 29  1  0
 29 30  2  0
 31 32  1  0
 32 33  2  0
 32 34  1  0
 34 35  1  0
 35 36  1  0
 36 37  2  0
 36 38  1  0
 38 39  1  0
 39 40  1  6
 40 41  1  0
 41 42  1  0
 42 43  1  0
 42 44  2  0
 39 45  1  0
 45 46  2  0
 45 47  1  0
 47 48  1  0
 48 49  1  0
 49 50  1  0
 50 51  2  0
 51 52  1  0
 52 53  1  0
 53 54  2  0
 54 55  1  0
 55 56  2  0
 56 57  1  0
 57 58  2  0
  8  4  1  0
 30 10  1  0
 58 50  1  0
 29 13  1  0
 58 53  1  0
 23 17  1  0
M  RAD  2  31   2  43   2
M  END

