
     RDKit          3D

 29 29  0  0  0  0  0  0  0  0999 V2000
   -7.6863    2.1560    0.0269 N   0  0  0  0  0  0  0  0  0  0  0  0
   -6.3564    1.7595    0.2530 C   0  0  0  0  0  0  0  0  0  0  0  0
   -5.3779    2.4844   -0.1194 N   0  0  0  0  0  4  0  0  0  0  0  0
   -6.0381    0.5219    0.9094 N   0  0  0  0  0  0  0  0  0  0  0  0
   -4.6494    0.1425    1.1251 C   0  0  0  0  0  0  0  0  0  0  0  0
   -3.9247    1.1389    2.0425 C   0  0  0  0  0  0  0  0  0  0  0  0
   -2.5057    0.5903    2.1261 C   0  0  0  0  0  0  0  0  0  0  0  0
   -1.9103    0.6131    0.7399 C   0  0  0  0  0  0  0  0  0  0  0  0
   -0.5249    0.0252    0.7397 C   0  0  0  0  0  0  0  0  0  0  0  0
   -0.0527   -0.5442    1.7508 O   0  0  0  0  0  0  0  0  0  0  0  0
    0.2736    0.1081   -0.4202 N   0  0  0  0  0  0  0  0  0  0  0  0
    1.6861   -0.5853   -0.2571 C   0  0  1  0  0  0  0  0  0  0  0  0
    1.6483   -1.1647   -1.8488 C   0  0  0  0  0  0  0  0  0  0  0  0
    0.3966   -1.9555   -1.7407 C   0  0  0  0  0  0  0  0  0  0  0  0
    0.4397   -3.2661   -1.3680 C   0  0  0  0  0  0  0  0  0  0  0  0
   -0.7348   -4.0240   -1.2406 C   0  0  0  0  0  0  0  0  0  0  0  0
   -1.9247   -3.4257   -1.4961 C   0  0  0  0  0  0  0  0  0  0  0  0
   -3.1233   -4.1421   -1.3809 O   0  0  0  0  0  0  0  0  0  0  0  0
   -2.0186   -2.1018   -1.8767 C   0  0  0  0  0  0  0  0  0  0  0  0
   -0.8420   -1.3959   -1.9904 C   0  0  0  0  0  0  0  0  0  0  0  0
    2.5491    0.7269   -0.6197 C   0  0  0  0  0  0  0  0  0  0  0  0
    2.1291    1.8123   -0.1504 O   0  0  0  0  0  0  0  0  0  0  0  0
    3.6898    0.5929   -1.4181 N   0  0  0  0  0  0  0  0  0  0  0  0
    4.4020    1.8600   -1.6762 C   0  0  0  0  0  0  0  0  0  0  0  0
    4.8798    2.3266   -0.2774 C   0  0  0  0  0  0  0  0  0  0  0  0
    5.7917    1.2543    0.2254 C   0  0  0  0  0  0  0  0  0  0  0  0
    6.3852    1.4771    1.5415 C   0  0  0  0  0  0  0  0  0  0  0  0
    7.3010    0.5288    2.0656 N   0  0  0  0  0  0  0  0  0  0  0  0
    6.0977    2.4867    2.2099 O   0  0  0  0  0  0  0  0  0  0  0  0
  1  2  1  0
  2  3  2  0
  2  4  1  0
  4  5  1  0
  5  6  1  0
  6  7  1  0
  7  8  1  0
  8  9  1  0
  9 10  2  0
  9 11  1  0
 11 12  1  0
 12 13  1  6
 13 14  1  0
 14 15  2  0
 15 16  1  0
 16 17  2  0
 17 18  1  0
 17 19  1  0
 19 20  2  0
 12 21  1  0
 21 22  2  0
 21 23  1  0
 23 24  1  0
 24 25  1  0
 25 26  1  0
 26 27  1  0
 27 28  1  0
 27 29  2  0
 20 14  1  0
M  CHG  1   3   1
M  END

