
     RDKit          3D

 26 26  0  0  0  0  0  0  0  0999 V2000
   -5.6505   -2.4139    2.1435 O   0  0  0  0  0  1  0  0  0  0  0  0
   -5.3761   -2.3146    0.7749 C   0  0  0  0  0  0  0  0  0  0  0  0
   -5.6894   -3.1905   -0.0471 O   0  0  0  0  0  0  0  0  0  0  0  0
   -4.6762   -1.1113    0.2436 C   0  0  0  0  0  0  0  0  0  0  0  0
   -4.2938   -0.2331    1.3863 C   0  0  0  0  0  0  0  0  0  0  0  0
   -3.5914    0.9589    0.8509 C   0  0  0  0  0  0  0  0  0  0  0  0
   -2.3688    0.6340    0.0810 C   0  0  0  0  0  0  0  0  0  0  0  0
   -2.1720   -0.6112   -0.1809 O   0  0  0  0  0  0  0  0  0  0  0  0
   -1.4091    1.5045   -0.3904 N   0  0  0  0  0  0  0  0  0  0  0  0
   -0.1688    0.9430   -1.1873 C   0  0  1  0  0  0  0  0  0  0  0  0
    0.9066    2.0651   -0.6716 C   0  0  0  0  0  0  0  0  0  0  0  0
    0.4773    3.3952   -1.0505 C   0  0  0  0  0  0  0  0  0  0  0  0
    0.3164    3.6986   -2.4804 C   0  0  0  0  0  0  0  0  0  0  0  0
   -0.0766    4.9162   -2.9808 O   0  0  0  0  0  1  0  0  0  0  0  0
    0.5614    2.7680   -3.3146 O   0  0  0  0  0  0  0  0  0  0  0  0
    0.2333   -0.1226   -0.0861 C   0  0  0  0  0  0  0  0  0  0  0  0
   -0.0444   -0.0088    1.0962 O   0  0  0  0  0  0  0  0  0  0  0  0
    0.9436   -1.2591   -0.5035 N   0  0  0  0  0  0  0  0  0  0  0  0
    1.3149   -2.2363    0.4511 C   0  0  0  0  0  0  0  0  0  0  0  0
    2.1955   -1.8436    1.5636 C   0  0  0  0  0  0  0  0  0  0  0  0
    3.5083   -1.3459    1.1275 C   0  0  0  0  0  0  0  0  0  0  0  0
    4.5368   -2.2194    0.9563 C   0  0  0  0  0  0  0  0  0  0  0  0
    5.7962   -1.8534    0.5512 C   0  0  0  0  0  0  0  0  0  0  0  0
    6.0187   -0.5008    0.3049 C   0  0  0  0  0  0  0  0  0  0  0  0
    4.9961    0.3768    0.4755 C   0  0  0  0  0  0  0  0  0  0  0  0
    3.7119    0.0041    0.8868 C   0  0  0  0  0  0  0  0  0  0  0  0
  1  2  1  0
  2  3  2  0
  2  4  1  0
  4  5  1  0
  5  6  1  0
  6  7  1  0
  7  8  2  0
  7  9  1  0
  9 10  1  0
 10 11  1  1
 11 12  1  0
 12 13  1  0
 13 14  1  0
 13 15  2  0
 10 16  1  0
 16 17  2  0
 16 18  1  0
 18 19  1  0
 19 20  1  0
 20 21  1  0
 21 22  2  0
 22 23  1  0
 23 24  2  0
 24 25  1  0
 25 26  2  0
 26 21  1  0
M  RAD  2   1   2  14   2
M  END

