
     RDKit          3D

 28 29  0  0  0  0  0  0  0  0999 V2000
   -7.0890   -2.0797   -0.6878 N   0  0  0  0  0  0  0  0  0  0  0  0
   -6.2518   -2.1183    0.4761 C   0  0  0  0  0  0  0  0  0  0  0  0
   -5.9063   -3.2816    0.8526 O   0  0  0  0  0  0  0  0  0  0  0  0
   -5.8128   -0.9027    1.1972 C   0  0  0  0  0  0  0  0  0  0  0  0
   -5.0211   -1.3249    2.4083 C   0  0  0  0  0  0  0  0  0  0  0  0
   -3.8362   -2.1035    1.9760 C   0  0  0  0  0  0  0  0  0  0  0  0
   -2.9580   -1.2473    1.0862 C   0  0  0  0  0  0  0  0  0  0  0  0
   -3.3146   -0.0886    0.7567 O   0  0  0  0  0  0  0  0  0  0  0  0
   -1.7202   -1.7055    0.5977 N   0  0  0  0  0  0  0  0  0  0  0  0
   -0.9707   -0.6457   -0.3101 C   0  0  1  0  0  0  0  0  0  0  0  0
   -1.0748    0.5725    0.7991 C   0  0  0  0  0  0  0  0  0  0  0  0
   -0.4366    1.7119    0.1452 C   0  0  0  0  0  0  0  0  0  0  0  0
    0.8915    1.9955    0.3805 C   0  0  0  0  0  0  0  0  0  0  0  0
    1.5244    3.0721   -0.2333 C   0  0  0  0  0  0  0  0  0  0  0  0
    0.8196    3.9027   -1.1142 C   0  0  0  0  0  0  0  0  0  0  0  0
    1.4009    4.9819   -1.7468 O   0  0  0  0  0  0  0  0  0  0  0  0
   -0.5060    3.6289   -1.3562 C   0  0  0  0  0  0  0  0  0  0  0  0
   -1.0794    2.5647   -0.7317 C   0  0  0  0  0  0  0  0  0  0  0  0
    0.5221   -1.0983    0.0994 C   0  0  0  0  0  0  0  0  0  0  0  0
    0.6999   -1.9762    0.9272 O   0  0  0  0  0  0  0  0  0  0  0  0
    1.5866   -0.4305   -0.5506 N   0  0  0  0  0  0  0  0  0  0  0  0
    2.9569   -0.8093   -0.2154 C   0  0  0  0  0  0  0  0  0  0  0  0
    3.8637    0.0816   -1.0260 C   0  0  0  0  0  0  0  0  0  0  0  0
    5.2558   -0.2793   -0.7016 C   0  0  0  0  0  0  0  0  0  0  0  0
    6.0048    0.2433    0.3195 C   0  0  0  0  0  0  0  0  0  0  0  0
    7.2214   -0.3188    0.2955 N   0  0  0  0  0  0  0  0  0  0  0  0
    7.2159   -1.1843   -0.7393 C   0  0  0  0  0  0  0  0  0  0  0  0
    6.0139   -1.1606   -1.3486 N   0  0  0  0  0  0  0  0  0  0  0  0
  1  2  1  0
  2  3  2  0
  2  4  1  0
  4  5  1  0
  5  6  1  0
  6  7  1  0
  7  8  2  0
  7  9  1  0
  9 10  1  0
 10 11  1  1
 11 12  1  0
 12 13  2  0
 13 14  1  0
 14 15  2  0
 15 16  1  0
 15 17  1  0
 17 18  2  0
 10 19  1  0
 19 20  2  0
 19 21  1  0
 21 22  1  0
 22 23  1  0
 23 24  1  0
 24 25  2  0
 25 26  1  0
 26 27  1  0
 27 28  2  0
 18 12  1  0
 28 24  1  0
M  END

