
     RDKit          3D

 51 53  0  0  0  0  0  0  0  0999 V2000
   -1.4420   -4.8858    1.8226 C   0  0  0  0  0  0  0  0  0  0  0  0
   -1.9722   -3.6199    1.2294 C   0  0  0  0  0  0  0  0  0  0  0  0
   -1.0804   -3.0738    0.2119 C   0  0  0  0  0  0  0  0  0  0  0  0
   -0.0128   -3.6455   -0.0894 O   0  0  0  0  0  0  0  0  0  0  0  0
   -1.3325   -1.8930   -0.4975 N   0  0  0  0  0  0  0  0  0  0  0  0
   -0.2484   -1.4492   -1.5665 C   0  0  1  0  0  0  0  0  0  0  0  0
   -0.9341    0.0536   -1.7587 C   0  0  0  0  0  0  0  0  0  0  0  0
   -0.8705    0.6597   -0.3761 C   0  0  0  0  0  0  0  0  0  0  0  0
   -1.4499    2.0429   -0.3248 C   0  0  0  0  0  0  0  0  0  0  0  0
   -2.8259    2.0276   -0.7141 N   0  0  0  0  0  0  0  0  0  0  0  0
   -3.5789    3.2317   -0.7424 C   0  0  0  0  0  0  0  0  0  0  0  0
   -4.9384    3.2518   -1.1187 N   0  0  0  0  0  0  0  0  0  0  0  0
   -2.9586    4.3323   -0.4020 N   0  0  0  0  0  4  0  0  0  0  0  0
    0.9103   -1.0539   -0.5633 C   0  0  0  0  0  0  0  0  0  0  0  0
    0.8728   -1.1129    0.6231 O   0  0  0  0  0  0  0  0  0  0  0  0
    2.0478   -0.6032   -1.2299 N   0  0  0  0  0  0  0  0  0  0  0  0
    3.2743   -0.1680   -0.5756 C   0  0  0  0  0  0  0  0  0  0  0  0
    2.9669    0.9971    0.3089 C   0  0  0  0  0  0  0  0  0  0  0  0
    4.1907    1.4689    0.9987 C   0  0  0  0  0  0  0  0  0  0  0  0
    4.1198    2.6319    1.8184 N   0  0  0  0  0  0  0  0  0  0  0  0
    5.2621    0.8078    0.8260 O   0  0  0  0  0  0  0  0  0  0  0  0
    4.3771    1.4732   -1.4782 C   0  0  0  0  0  0  0  0  0  0  0  0
    4.9649    1.8192    0.0213 C   0  0  2  0  0  0  0  0  0  0  0  0
    6.2303    0.7839   -0.0967 C   0  0  0  0  0  0  0  0  0  0  0  0
    5.7366   -0.5262   -0.3012 N   0  0  0  0  0  0  0  0  0  0  0  0
    5.4825   -1.1217   -1.4490 N   0  0  0  0  0  0  0  0  0  0  0  0
    5.0282   -2.3604   -1.1967 C   0  0  0  0  0  0  0  0  0  0  0  0
    5.0131   -2.5013    0.1347 N   0  0  0  0  0  0  0  0  0  0  0  0
    5.4466   -1.3768    0.6550 N   0  0  0  0  0  0  0  0  0  0  0  0
    4.0221    0.8036    0.7544 N   0  0  0  0  0  0  0  0  0  0  0  0
    2.6371    1.1036    0.5461 C   0  0  0  0  0  0  0  0  0  0  0  0
    2.2122    2.1399   -0.1949 N   0  0  0  0  0  0  0  0  0  0  0  0
    0.9155    2.4135   -0.3846 C   0  0  0  0  0  0  0  0  0  0  0  0
   -0.0296    1.5982    0.2048 C   0  0  0  0  0  0  0  0  0  0  0  0
   -1.3805    1.7949    0.0705 C   0  0  0  0  0  0  0  0  0  0  0  0
   -2.2568    0.9337    0.6924 C   0  0  0  0  0  0  0  0  0  0  0  0
   -3.6201    1.2034    0.5059 O   0  0  0  0  0  0  0  0  0  0  0  0
   -4.4361    0.2650   -0.0865 C   0  0  0  0  0  0  0  0  0  0  0  0
   -5.5144   -0.2143    0.6518 C   0  0  0  0  0  0  0  0  0  0  0  0
   -6.3614   -1.1569    0.0997 C   0  0  0  0  0  0  0  0  0  0  0  0
   -6.1100   -1.6048   -1.1916 C   0  0  0  0  0  0  0  0  0  0  0  0
   -6.9768   -2.5371   -1.6917 F   0  0  0  0  0  0  0  0  0  0  0  0
   -5.0474   -1.1359   -1.9259 C   0  0  0  0  0  0  0  0  0  0  0  0
   -4.2027   -0.1948   -1.3732 C   0  0  0  0  0  0  0  0  0  0  0  0
   -3.1554    0.2647   -2.1023 F   0  0  0  0  0  0  0  0  0  0  0  0
   -1.8321   -0.1325    1.4549 C   0  0  0  0  0  0  0  0  0  0  0  0
   -2.6963   -0.8723    1.9898 O   0  0  0  0  0  0  0  0  0  0  0  0
   -0.5123   -0.3151    1.5793 N   0  0  0  0  0  0  0  0  0  0  0  0
   -0.0168   -1.4067    2.3596 C   0  0  0  0  0  0  0  0  0  0  0  0
    0.3788    0.5264    0.9714 C   0  0  0  0  0  0  0  0  0  0  0  0
    1.7037    0.3338    1.1029 N   0  0  0  0  0  0  0  0  0  0  0  0
  1  2  1  0
  2  3  1  0
  3  4  2  0
  3  5  1  0
  5  6  1  0
  6  7  1  1
  7  8  1  0
  8  9  1  0
  9 10  1  0
 10 11  1  0
 11 12  1  0
 11 13  2  0
  6 14  1  0
 14 15  2  0
 14 16  1  0
 16 17  1  0
 17 18  1  0
 18 19  1  0
 19 20  1  0
 19 21  2  0
 23 22  1  6
 23 24  1  0
 24 25  1  0
 25 26  1  0
 26 27  2  0
 27 28  1  0
 28 29  2  0
 23 30  1  0
 30 31  1  0
 31 32  2  0
 32 33  1  0
 33 34  2  0
 34 35  1  0
 35 36  2  0
 36 37  1  0
 37 38  1  0
 38 39  2  0
 39 40  1  0
 40 41  2  0
 41 42  1  0
 41 43  1  0
 43 44  2  0
 44 45  1  0
 36 46  1  0
 46 47  2  0
 46 48  1  0
 48 49  1  0
 48 50  1  0
 50 51  2  0
 29 25  1  0
 51 31  1  0
 50 34  1  0
 44 38  1  0
M  CHG  1  13   1
M  END

