
     RDKit          3D

 50 53  0  0  0  0  0  0  0  0999 V2000
    4.5902    2.6286   -0.6299 C   0  0  0  0  0  0  0  0  0  0  0  0
    5.2429    1.2953   -0.8539 C   0  0  0  0  0  0  0  0  0  0  0  0
    6.5929    1.3974   -1.4645 C   0  0  0  0  0  0  0  0  0  0  0  0
    5.3621    0.5786    0.4660 C   0  0  0  0  0  0  0  0  0  0  0  0
    3.9486    0.4127    0.9996 C   0  0  0  0  0  0  0  0  0  0  0  0
    3.1519   -0.3901    0.0169 C   0  0  0  0  0  0  0  0  0  0  0  0
    3.6801   -0.7949   -1.0300 O   0  0  0  0  0  0  0  0  0  0  0  0
    1.8018   -0.6400    0.3641 N   0  0  0  0  0  0  0  0  0  0  0  0
    0.9826   -1.4917   -0.6947 C   0  0  1  0  0  0  0  0  0  0  0  0
    0.6013   -2.6675    0.4221 C   0  0  0  0  0  0  0  0  0  0  0  0
   -0.4337   -0.7271   -0.5160 C   0  0  0  0  0  0  0  0  0  0  0  0
   -0.5464    0.1887    0.2643 O   0  0  0  0  0  0  0  0  0  0  0  0
   -1.4717   -1.2468   -1.3519 N   0  0  0  0  0  0  0  0  0  0  0  0
   -2.7527   -0.5854   -1.2160 C   0  0  0  0  0  0  0  0  0  0  0  0
   -3.2259   -0.7262    0.2261 C   0  0  0  0  0  0  0  0  0  0  0  0
   -4.5300   -0.0433    0.3324 C   0  0  0  0  0  0  0  0  0  0  0  0
   -4.6666    1.2818    0.6575 C   0  0  0  0  0  0  0  0  0  0  0  0
   -5.9557    1.5949    0.6719 N   0  0  0  0  0  0  0  0  0  0  0  0
   -6.6159    0.4753    0.3590 C   0  0  0  0  0  0  0  0  0  0  0  0
   -5.7559   -0.5402    0.1474 N   0  0  0  0  0  0  0  0  0  0  0  0
   -4.5614   -0.1141    2.1651 C   0  0  0  0  0  0  0  0  0  0  0  0
   -4.9632    1.3013    1.4663 C   0  0  2  0  0  0  0  0  0  0  0  0
   -4.8498    0.7331   -0.0522 C   0  0  0  0  0  0  0  0  0  0  0  0
   -5.8190   -0.3390   -0.1043 N   0  0  0  0  0  0  0  0  0  0  0  0
   -7.0766   -0.1545   -0.4564 N   0  0  0  0  0  0  0  0  0  0  0  0
   -7.6897   -1.3368   -0.3983 C   0  0  0  0  0  0  0  0  0  0  0  0
   -6.7591   -2.2170   -0.0033 N   0  0  0  0  0  0  0  0  0  0  0  0
   -5.5988   -1.6104    0.1813 N   0  0  0  0  0  0  0  0  0  0  0  0
   -3.5348    1.8921    1.5168 N   0  0  0  0  0  0  0  0  0  0  0  0
   -2.4663    1.2555    0.8994 C   0  0  0  0  0  0  0  0  0  0  0  0
   -2.6182    0.0845    0.2210 N   0  0  0  0  0  0  0  0  0  0  0  0
   -1.5724   -0.5202   -0.3721 C   0  0  0  0  0  0  0  0  0  0  0  0
   -0.3213    0.0485   -0.2968 C   0  0  0  0  0  0  0  0  0  0  0  0
    0.8007   -0.4936   -0.8683 C   0  0  0  0  0  0  0  0  0  0  0  0
    2.0270    0.1323   -0.7529 C   0  0  0  0  0  0  0  0  0  0  0  0
    3.1891   -0.3762   -1.3127 O   0  0  0  0  0  0  0  0  0  0  0  0
    4.3026   -0.7140   -0.5552 C   0  0  0  0  0  0  0  0  0  0  0  0
    4.3327   -0.5669    0.8167 C   0  0  0  0  0  0  0  0  0  0  0  0
    5.4507   -0.9080    1.5608 C   0  0  0  0  0  0  0  0  0  0  0  0
    6.5867   -1.4105    0.9664 C   0  0  0  0  0  0  0  0  0  0  0  0
    7.6951   -1.7513    1.6816 F   0  0  0  0  0  0  0  0  0  0  0  0
    6.5639   -1.5600   -0.4025 C   0  0  0  0  0  0  0  0  0  0  0  0
    5.4395   -1.2169   -1.1491 C   0  0  0  0  0  0  0  0  0  0  0  0
    5.4293   -1.3682   -2.4925 F   0  0  0  0  0  0  0  0  0  0  0  0
    2.0970    1.3159   -0.0491 C   0  0  0  0  0  0  0  0  0  0  0  0
    3.2028    1.8799    0.0547 O   0  0  0  0  0  0  0  0  0  0  0  0
    1.0043    1.8722    0.5247 N   0  0  0  0  0  0  0  0  0  0  0  0
    1.1635    3.1064    1.2400 C   0  0  0  0  0  0  0  0  0  0  0  0
   -0.1829    1.2383    0.3960 C   0  0  0  0  0  0  0  0  0  0  0  0
   -1.2717    1.7977    0.9709 N   0  0  0  0  0  0  0  0  0  0  0  0
  1  2  1  0
  2  3  1  0
  2  4  1  0
  4  5  1  0
  5  6  1  0
  6  7  2  0
  6  8  1  0
  8  9  1  0
  9 10  1  1
  9 11  1  0
 11 12  2  0
 11 13  1  0
 13 14  1  0
 14 15  1  0
 15 16  1  0
 16 17  2  0
 17 18  1  0
 18 19  1  0
 19 20  2  0
 22 21  1  1
 22 23  1  0
 23 24  1  0
 24 25  1  0
 25 26  2  0
 26 27  1  0
 27 28  2  0
 22 29  1  0
 29 30  1  0
 30 31  2  0
 31 32  1  0
 32 33  2  0
 33 34  1  0
 34 35  2  0
 35 36  1  0
 36 37  1  0
 37 38  2  0
 38 39  1  0
 39 40  2  0
 40 41  1  0
 40 42  1  0
 42 43  2  0
 43 44  1  0
 35 45  1  0
 45 46  2  0
 45 47  1  0
 47 48  1  0
 47 49  1  0
 49 50  2  0
 20 16  1  0
 28 24  1  0
 50 30  1  0
 49 33  1  0
 43 37  1  0
M  END

