
     RDKit          3D

 53 56  0  0  0  0  0  0  0  0999 V2000
   -0.9655   -0.3043   -1.0933 C   0  0  0  0  0  0  0  0  0  0  0  0
   -1.4325   -1.6789   -1.2102 C   0  0  0  0  0  0  0  0  0  0  0  0
   -0.6394   -2.4988   -2.2285 C   0  0  0  0  0  0  0  0  0  0  0  0
   -1.3402   -2.5495    0.1145 C   0  0  2  0  0  0  0  0  0  0  0  0
   -2.2818   -1.8417    1.1020 N   0  0  0  0  0  0  0  0  0  0  0  0
   -3.2109   -0.9518    0.5881 C   0  0  0  0  0  0  0  0  0  0  0  0
   -3.2893   -0.7454   -0.6754 O   0  0  0  0  0  0  0  0  0  0  0  0
   -4.2230   -0.1204    1.3104 C   0  0  0  0  0  0  0  0  0  0  0  0
   -4.3124    1.2359    0.8561 C   0  0  0  0  0  0  0  0  0  0  0  0
   -4.5359    1.7394   -0.4553 C   0  0  0  0  0  0  0  0  0  0  0  0
   -4.5751    3.1872   -0.5714 O   0  0  0  0  0  1  0  0  0  0  0  0
   -4.7154    1.2176   -1.5893 O   0  0  0  0  0  0  0  0  0  0  0  0
    0.0900   -1.9141    0.6641 C   0  0  0  0  0  0  0  0  0  0  0  0
    0.7608   -2.6994    1.3549 O   0  0  0  0  0  0  0  0  0  0  0  0
    0.4234   -0.6638    0.3616 N   0  0  0  0  0  0  0  0  0  0  0  0
    1.5382    0.1520    0.5981 C   0  0  0  0  0  0  0  0  0  0  0  0
    2.7550   -0.2917   -0.1574 C   0  0  0  0  0  0  0  0  0  0  0  0
    3.8725    0.6248    0.0562 C   0  0  0  0  0  0  0  0  0  0  0  0
    3.8530    1.9281   -0.4722 C   0  0  0  0  0  0  0  0  0  0  0  0
    4.9731    2.7068   -0.3354 C   0  0  0  0  0  0  0  0  0  0  0  0
    6.1316    2.2919    0.2917 C   0  0  0  0  0  0  0  0  0  0  0  0
    6.1191    1.0004    0.8041 C   0  0  0  0  0  0  0  0  0  0  0  0
    5.0048    0.1757    0.6864 C   0  0  0  0  0  0  0  0  0  0  0  0
    4.0637    0.2352    1.6615 C   0  0  0  0  0  0  0  0  0  0  0  0
    4.3492   -1.3923    1.5198 C   0  0  2  0  0  0  0  0  0  0  0  0
    5.9795   -1.2470    1.3223 C   0  0  0  0  0  0  0  0  0  0  0  0
    6.2408   -0.4643    0.1790 N   0  0  0  0  0  0  0  0  0  0  0  0
    6.4140   -0.7462   -1.0940 N   0  0  0  0  0  0  0  0  0  0  0  0
    6.6380    0.3888   -1.7759 C   0  0  0  0  0  0  0  0  0  0  0  0
    6.6021    1.4013   -0.8980 N   0  0  0  0  0  0  0  0  0  0  0  0
    6.3632    0.8654    0.2628 N   0  0  0  0  0  0  0  0  0  0  0  0
    4.0383   -1.4230   -0.0278 N   0  0  0  0  0  0  0  0  0  0  0  0
    2.7004   -0.9926   -0.2924 C   0  0  0  0  0  0  0  0  0  0  0  0
    2.2505   -0.9529   -1.5762 N   0  0  0  0  0  0  0  0  0  0  0  0
    1.0140   -0.5628   -1.9086 C   0  0  0  0  0  0  0  0  0  0  0  0
    0.1200   -0.1726   -0.9195 C   0  0  0  0  0  0  0  0  0  0  0  0
   -1.1426    0.2333   -1.1669 C   0  0  0  0  0  0  0  0  0  0  0  0
   -2.0184    0.6240   -0.1002 C   0  0  0  0  0  0  0  0  0  0  0  0
   -3.2510    1.0143   -0.4406 O   0  0  0  0  0  0  0  0  0  0  0  0
   -4.5260    0.6866   -0.3173 C   0  0  0  0  0  0  0  0  0  0  0  0
   -5.1403    0.3672   -1.5773 C   0  0  0  0  0  0  0  0  0  0  0  0
   -6.4466    0.0059   -1.6685 C   0  0  0  0  0  0  0  0  0  0  0  0
   -7.2655   -0.0776   -0.5615 C   0  0  0  0  0  0  0  0  0  0  0  0
   -8.5393   -0.4418   -0.7385 F   0  0  0  0  0  0  0  0  0  0  0  0
   -6.6970    0.2240    0.6477 C   0  0  0  0  0  0  0  0  0  0  0  0
   -5.3498    0.5985    0.7535 C   0  0  0  0  0  0  0  0  0  0  0  0
   -4.9593    0.8857    2.0086 F   0  0  0  0  0  0  0  0  0  0  0  0
   -1.5343    0.5734    1.1745 C   0  0  0  0  0  0  0  0  0  0  0  0
   -2.2187    0.9011    2.2054 O   0  0  0  0  0  0  0  0  0  0  0  0
   -0.2516    0.1565    1.3823 N   0  0  0  0  0  0  0  0  0  0  0  0
    0.1764    0.1346    2.7800 C   0  0  0  0  0  0  0  0  0  0  0  0
    0.5676   -0.2097    0.3843 C   0  0  0  0  0  0  0  0  0  0  0  0
    1.8226   -0.6130    0.6375 N   0  0  0  0  0  0  0  0  0  0  0  0
  1  2  1  0
  2  3  1  0
  2  4  1  0
  4  5  1  1
  5  6  1  0
  6  7  2  0
  6  8  1  0
  8  9  1  0
  9 10  1  0
 10 11  1  0
 10 12  2  0
  4 13  1  0
 13 14  2  0
 13 15  1  0
 15 16  1  0
 16 17  1  0
 17 18  1  0
 18 19  2  0
 19 20  1  0
 20 21  2  0
 21 22  1  0
 22 23  2  0
 25 24  1  6
 25 26  1  0
 26 27  1  0
 27 28  1  0
 28 29  2  0
 29 30  1  0
 30 31  2  0
 25 32  1  0
 32 33  1  0
 33 34  2  0
 34 35  1  0
 35 36  2  0
 36 37  1  0
 37 38  2  0
 38 39  1  0
 39 40  1  0
 40 41  2  0
 41 42  1  0
 42 43  2  0
 43 44  1  0
 43 45  1  0
 45 46  2  0
 46 47  1  0
 38 48  1  0
 48 49  2  0
 48 50  1  0
 50 51  1  0
 50 52  1  0
 52 53  2  0
 23 18  1  0
 31 27  1  0
 53 33  1  0
 52 36  1  0
 46 40  1  0
M  RAD  1  11   2
M  END

