
     RDKit          3D

 51 53  0  0  0  0  0  0  0  0999 V2000
   -5.3390   -1.4650    0.8518 C   0  0  0  0  0  0  0  0  0  0  0  0
   -4.2528   -0.8055    0.0081 C   0  0  0  0  0  0  0  0  0  0  0  0
   -4.2972    0.7140    0.6296 C   0  0  2  0  0  0  0  0  0  0  0  0
   -5.8675    0.9143    0.1977 C   0  0  0  0  0  0  0  0  0  0  0  0
   -3.7492    1.4174   -0.7482 C   0  0  0  0  0  0  0  0  0  0  0  0
   -2.4767    0.8672   -1.0328 N   0  0  0  0  0  0  0  0  0  0  0  0
   -1.3248    0.8765   -0.2535 C   0  0  0  0  0  0  0  0  0  0  0  0
   -1.3776    1.4360    0.8476 O   0  0  0  0  0  0  0  0  0  0  0  0
   -0.0034    0.1980   -0.7444 C   0  0  1  0  0  0  0  0  0  0  0  0
    0.8297    0.4089    0.5119 N   0  0  0  0  0  0  0  0  0  0  0  0
    2.2135    0.1575    0.3302 C   0  0  0  0  0  0  0  0  0  0  0  0
    2.7423   -0.2001   -0.7520 O   0  0  0  0  0  0  0  0  0  0  0  0
    3.1622    0.3145    1.4859 C   0  0  0  0  0  0  0  0  0  0  0  0
    4.5751   -0.0195    1.1244 C   0  0  0  0  0  0  0  0  0  0  0  0
    5.1321    0.8326    0.0501 C   0  0  0  0  0  0  0  0  0  0  0  0
    6.4269    0.6334   -0.4272 O   0  0  0  0  0  1  0  0  0  0  0  0
    4.4647    1.7554   -0.4626 O   0  0  0  0  0  0  0  0  0  0  0  0
   -0.5505   -1.3730   -0.5334 C   0  0  1  0  0  0  0  0  0  0  0  0
    0.7941   -2.0822   -1.0276 C   0  0  0  0  0  0  0  0  0  0  0  0
   -0.3115   -1.5922    1.0260 C   0  0  0  0  0  0  0  0  0  0  0  0
   -0.7906   -2.9881    1.2523 C   0  0  0  0  0  0  0  0  0  0  0  0
    5.7782   -2.0045    1.2992 C   0  0  0  0  0  0  0  0  0  0  0  0
    4.1928   -2.2604    0.8878 C   0  0  2  0  0  0  0  0  0  0  0  0
    4.4244   -1.9713   -0.7173 C   0  0  0  0  0  0  0  0  0  0  0  0
    4.9175   -0.6639   -0.8963 N   0  0  0  0  0  0  0  0  0  0  0  0
    6.2067   -0.3623   -0.9086 N   0  0  0  0  0  0  0  0  0  0  0  0
    6.4144    0.9529   -1.0957 C   0  0  0  0  0  0  0  0  0  0  0  0
    5.1934    1.4879   -1.2040 N   0  0  0  0  0  0  0  0  0  0  0  0
    4.3141    0.5098   -1.0827 N   0  0  0  0  0  0  0  0  0  0  0  0
    3.7578   -0.7817    1.2217 N   0  0  0  0  0  0  0  0  0  0  0  0
    2.3701   -0.6137    0.9746 C   0  0  0  0  0  0  0  0  0  0  0  0
    1.5415   -1.5675    0.5230 N   0  0  0  0  0  0  0  0  0  0  0  0
    0.2364   -1.3954    0.2946 C   0  0  0  0  0  0  0  0  0  0  0  0
   -0.2914   -0.1467    0.5423 C   0  0  0  0  0  0  0  0  0  0  0  0
   -1.6520    0.0846    0.3191 C   0  0  0  0  0  0  0  0  0  0  0  0
   -2.1978    1.3256    0.5607 C   0  0  0  0  0  0  0  0  0  0  0  0
   -3.5481    1.5248    0.3305 O   0  0  0  0  0  0  0  0  0  0  0  0
   -4.3592    0.5014   -0.1375 C   0  0  0  0  0  0  0  0  0  0  0  0
   -5.0278    0.6067   -1.3130 C   0  0  0  0  0  0  0  0  0  0  0  0
   -5.8305   -0.4207   -1.7641 C   0  0  0  0  0  0  0  0  0  0  0  0
   -5.9861   -1.5836   -1.0494 C   0  0  0  0  0  0  0  0  0  0  0  0
   -6.7806   -2.5772   -1.5153 F   0  0  0  0  0  0  0  0  0  0  0  0
   -5.2994   -1.6797    0.1478 C   0  0  0  0  0  0  0  0  0  0  0  0
   -4.4906   -0.6437    0.6016 C   0  0  0  0  0  0  0  0  0  0  0  0
   -3.8236   -0.7514    1.7763 F   0  0  0  0  0  0  0  0  0  0  0  0
   -1.3607    2.3157    1.0247 C   0  0  0  0  0  0  0  0  0  0  0  0
   -1.8297    3.4625    1.2555 O   0  0  0  0  0  0  0  0  0  0  0  0
   -0.0333    2.0767    1.2385 N   0  0  0  0  0  0  0  0  0  0  0  0
    0.8499    3.1196    1.7275 C   0  0  0  0  0  0  0  0  0  0  0  0
    0.5079    0.8561    1.0018 C   0  0  0  0  0  0  0  0  0  0  0  0
    1.8058    0.5993    1.2042 N   0  0  0  0  0  0  0  0  0  0  0  0
  1  2  1  0
  2  3  1  0
  3  4  1  6
  3  5  1  0
  5  6  1  0
  6  7  1  0
  7  8  2  0
  7  9  1  0
  9 10  1  1
 10 11  1  0
 11 12  2  0
 11 13  1  0
 13 14  1  0
 14 15  1  0
 15 16  1  0
 15 17  2  0
  9 18  1  0
 18 19  1  6
 18 20  1  0
 20 21  1  0
 23 22  1  1
 23 24  1  0
 24 25  1  0
 25 26  1  0
 26 27  2  0
 27 28  1  0
 28 29  2  0
 23 30  1  0
 30 31  1  0
 31 32  2  0
 32 33  1  0
 33 34  2  0
 34 35  1  0
 35 36  2  0
 36 37  1  0
 37 38  1  0
 38 39  2  0
 39 40  1  0
 40 41  2  0
 41 42  1  0
 41 43  1  0
 43 44  2  0
 44 45  1  0
 36 46  1  0
 46 47  2  0
 46 48  1  0
 48 49  1  0
 48 50  1  0
 50 51  2  0
 29 25  1  0
 51 31  1  0
 50 34  1  0
 44 38  1  0
M  RAD  1  16   2
M  END

