
     RDKit          3D

 19 18  0  0  0  0  0  0  0  0999 V2000
   -3.0384    2.2192   -0.0244 C   0  0  0  0  0  0  0  0  0  0  0  0
   -1.5563    2.5942    0.6866 C   0  0  1  0  0  0  0  0  0  0  0  0
   -2.2210    3.5343    1.7043 O   0  0  0  0  0  0  0  0  0  0  0  0
   -1.6535    1.2855    1.7157 C   0  0  0  0  0  0  0  0  0  0  0  0
   -1.7216    0.1609    0.7488 C   0  0  0  0  0  0  0  0  0  0  0  0
   -1.6973    0.2636   -0.4890 O   0  0  0  0  0  0  0  0  0  0  0  0
   -1.8252   -1.1682    1.2766 N   0  0  0  0  0  0  0  0  0  0  0  0
   -1.8988   -2.3510    0.4915 C   0  0  0  0  0  0  0  0  0  0  0  0
   -0.7656   -2.6250   -0.3874 C   0  0  0  0  0  0  0  0  0  0  0  0
   -0.8194   -3.6797   -1.1030 O   0  0  0  0  0  0  0  0  0  0  0  0
    0.3911   -1.8027   -0.5013 N   0  0  0  0  0  0  0  0  0  0  0  0
    1.4083   -2.2046   -1.3973 C   0  0  0  0  0  0  0  0  0  0  0  0
    2.6202   -1.3639   -1.5199 C   0  0  0  0  0  0  0  0  0  0  0  0
    3.3746   -1.1613   -0.2614 C   0  0  0  0  0  0  0  0  0  0  0  0
    2.6494   -0.3969    0.7538 C   0  0  0  0  0  0  0  0  0  0  0  0
    2.3578    0.9583    0.5537 N   0  0  0  0  0  0  0  0  0  0  0  0
    1.6945    1.6336   -0.4332 C   0  0  0  0  0  0  0  0  0  0  0  0
    1.5061    3.0722   -0.4364 N   0  0  0  0  0  0  0  0  0  0  0  0
    1.1951    1.0315   -1.4249 N   0  0  0  0  0  4  0  0  0  0  0  0
  2  1  1  6
  2  3  1  0
  2  4  1  0
  4  5  1  0
  5  6  2  0
  5  7  1  0
  7  8  1  0
  8  9  1  0
  9 10  2  0
  9 11  1  0
 11 12  1  0
 12 13  1  0
 13 14  1  0
 14 15  1  0
 15 16  1  0
 16 17  1  0
 17 18  1  0
 17 19  2  0
M  CHG  1  19   1
M  END

