
     RDKit          3D

 22 21  0  0  0  0  0  0  0  0999 V2000
   -3.8760   -3.5710    2.1377 C   0  0  0  0  0  0  0  0  0  0  0  0
   -3.3578   -3.3500    0.7298 C   0  0  0  0  0  0  0  0  0  0  0  0
   -4.4376   -3.5888   -0.3058 C   0  0  0  0  0  0  0  0  0  0  0  0
   -2.7926   -1.9542    0.5768 C   0  0  0  0  0  0  0  0  0  0  0  0
   -1.6586   -1.7565    1.5637 C   0  0  0  0  0  0  0  0  0  0  0  0
   -1.0840   -0.4560    1.4753 N   0  0  0  0  0  0  0  0  0  0  0  0
   -0.4550    0.1180    0.3644 C   0  0  0  0  0  0  0  0  0  0  0  0
   -0.3304   -0.4937   -0.6928 O   0  0  0  0  0  0  0  0  0  0  0  0
    0.1037    1.5979    0.5068 C   0  0  2  0  0  0  0  0  0  0  0  0
   -0.9522    2.2051   -0.6438 C   0  0  0  0  0  0  0  0  0  0  0  0
   -2.3056    1.9037   -0.1074 C   0  0  0  0  0  0  0  0  0  0  0  0
   -2.6486    2.5026    1.2062 C   0  0  0  0  0  0  0  0  0  0  0  0
   -4.0723    2.0719    1.5664 C   0  0  0  0  0  0  0  0  0  0  0  0
   -4.9797    2.5448    0.5353 N   0  0  0  0  0  4  0  0  0  0  0  0
    1.2445    1.4380   -0.5629 N   0  0  0  0  0  0  0  0  0  0  0  0
    2.4137    0.7851   -0.0567 C   0  0  0  0  0  0  0  0  0  0  0  0
    2.4378    0.4010    1.1363 O   0  0  0  0  0  0  0  0  0  0  0  0
    3.5861    0.5659   -0.9244 C   0  0  0  0  0  0  0  0  0  0  0  0
    4.6837   -0.1596   -0.2345 C   0  0  0  0  0  0  0  0  0  0  0  0
    5.9036   -0.3904   -1.0531 C   0  0  0  0  0  0  0  0  0  0  0  0
    5.7292   -1.1743   -2.2856 C   0  0  0  0  0  0  0  0  0  0  0  0
    6.8482    0.7608   -1.1031 C   0  0  0  0  0  0  0  0  0  0  0  0
  1  2  1  0
  2  3  1  0
  2  4  1  0
  4  5  1  0
  5  6  1  0
  6  7  1  0
  7  8  2  0
  7  9  1  0
  9 10  1  6
 10 11  1  0
 11 12  1  0
 12 13  1  0
 13 14  1  0
  9 15  1  0
 15 16  1  0
 16 17  2  0
 16 18  1  0
 18 19  1  0
 19 20  1  0
 20 21  1  0
 20 22  1  0
M  CHG  1  14   1
M  END

