
     RDKit          3D

 22 21  0  0  0  0  0  0  0  0999 V2000
   -3.0448    2.6452    0.3560 C   0  0  0  0  0  0  0  0  0  0  0  0
   -4.3336    1.9290    0.5537 C   0  0  0  0  0  0  0  0  0  0  0  0
   -5.5453    2.8417    0.6057 C   0  0  0  0  0  0  0  0  0  0  0  0
   -4.6126    0.7598   -0.2140 C   0  0  0  0  0  0  0  0  0  0  0  0
   -4.0224   -0.4776   -0.3354 C   0  0  0  0  0  0  0  0  0  0  0  0
   -2.7868   -0.9269   -0.6789 N   0  0  0  0  0  0  0  0  0  0  0  0
   -1.6208   -0.7070    0.0195 C   0  0  0  0  0  0  0  0  0  0  0  0
   -1.6548   -0.0622    1.0584 O   0  0  0  0  0  0  0  0  0  0  0  0
   -0.2543   -1.2932   -0.5390 C   0  0  2  0  0  0  0  0  0  0  0  0
   -0.3211   -2.7210    0.2418 C   0  0  0  0  0  0  0  0  0  0  0  0
   -1.4442   -3.5028   -0.1637 C   0  0  0  0  0  0  0  0  0  0  0  0
   -1.8289   -4.6648    0.6208 N   0  0  0  0  0  0  0  0  0  0  0  0
   -2.1509   -3.2653   -1.1721 O   0  0  0  0  0  0  0  0  0  0  0  0
    0.6895   -0.6544    0.5751 N   0  0  0  0  0  0  0  0  0  0  0  0
    1.9118   -0.1438    0.0778 C   0  0  0  0  0  0  0  0  0  0  0  0
    2.2824   -0.1545   -1.1198 O   0  0  0  0  0  0  0  0  0  0  0  0
    2.8572    0.4638    1.0571 C   0  0  0  0  0  0  0  0  0  0  0  0
    4.1564    0.8826    0.5003 C   0  0  0  0  0  0  0  0  0  0  0  0
    4.1367    1.9037   -0.5764 C   0  0  0  0  0  0  0  0  0  0  0  0
    5.4736    2.2457   -1.0806 C   0  0  0  0  0  0  0  0  0  0  0  0
    5.6287    3.2357   -2.0710 N   0  0  0  0  0  0  0  0  0  0  0  0
    6.4843    1.6663   -0.6417 O   0  0  0  0  0  0  0  0  0  0  0  0
  1  2  1  0
  2  3  1  0
  2  4  1  0
  4  5  1  0
  5  6  1  0
  6  7  1  0
  7  8  2  0
  7  9  1  0
  9 10  1  1
 10 11  1  0
 11 12  1  0
 11 13  2  0
  9 14  1  0
 14 15  1  0
 15 16  2  0
 15 17  1  0
 17 18  1  0
 18 19  1  0
 19 20  1  0
 20 21  1  0
 20 22  2  0
M  END

