
     RDKit          3D

 53 55  0  0  0  0  0  0  0  0999 V2000
   -5.9969   -3.4601   -0.5108 C   0  0  0  0  0  0  0  0  0  0  0  0
   -4.8906   -2.7901   -1.2521 C   0  0  0  0  0  0  0  0  0  0  0  0
   -4.1016   -1.8515   -0.1935 C   0  0  2  0  0  0  0  0  0  0  0  0
   -5.4086   -0.9509    0.1585 C   0  0  0  0  0  0  0  0  0  0  0  0
   -3.5673   -0.8240   -1.3324 C   0  0  0  0  0  0  0  0  0  0  0  0
   -2.7925    0.1745   -0.6596 N   0  0  0  0  0  0  0  0  0  0  0  0
   -1.6682   -0.1771    0.0714 C   0  0  0  0  0  0  0  0  0  0  0  0
   -1.3233   -1.3777    0.1466 O   0  0  0  0  0  0  0  0  0  0  0  0
   -0.7940    0.8958    0.8235 C   0  0  2  0  0  0  0  0  0  0  0  0
    0.0990    1.4160   -0.4279 C   0  0  0  0  0  0  0  0  0  0  0  0
    1.0242    2.4700    0.0838 C   0  0  0  0  0  0  0  0  0  0  0  0
    0.3335    3.6597    0.6880 C   0  0  0  0  0  0  0  0  0  0  0  0
    1.4192    4.6160    1.1474 C   0  0  0  0  0  0  0  0  0  0  0  0
    2.2586    3.9677    2.1232 N   0  0  0  0  0  4  0  0  0  0  0  0
    0.2551   -0.0618    1.3914 N   0  0  0  0  0  0  0  0  0  0  0  0
    1.1106   -0.7760    0.5652 C   0  0  0  0  0  0  0  0  0  0  0  0
    1.0477   -0.6509   -0.6732 O   0  0  0  0  0  0  0  0  0  0  0  0
    2.1194   -1.7039    1.1145 C   0  0  0  0  0  0  0  0  0  0  0  0
    2.8878   -2.3272    0.0047 C   0  0  0  0  0  0  0  0  0  0  0  0
    3.6250   -1.3427   -0.8601 C   0  0  0  0  0  0  0  0  0  0  0  0
    4.5997   -0.6006    0.0465 C   0  0  0  0  0  0  0  0  0  0  0  0
    5.3398    0.3836   -0.8124 C   0  0  0  0  0  0  0  0  0  0  0  0
    4.4233    1.3112   -1.4193 N   0  0  0  0  0  4  0  0  0  0  0  0
    4.0928    1.0937   -0.0577 C   0  0  0  0  0  0  0  0  0  0  0  0
    4.5333   -0.4256    0.4309 C   0  0  2  0  0  0  0  0  0  0  0  0
    5.7561   -0.5006   -0.7009 C   0  0  0  0  0  0  0  0  0  0  0  0
    6.5743    0.6233   -0.3079 N   0  0  0  0  0  0  0  0  0  0  0  0
    6.4684    1.8680   -0.7332 N   0  0  0  0  0  0  0  0  0  0  0  0
    7.4266    2.5571   -0.1039 C   0  0  0  0  0  0  0  0  0  0  0  0
    8.1187    1.7304    0.7074 N   0  0  0  0  0  0  0  0  0  0  0  0
    7.5632    0.5392    0.5559 N   0  0  0  0  0  0  0  0  0  0  0  0
    3.5101   -1.1438   -0.5296 N   0  0  0  0  0  0  0  0  0  0  0  0
    2.1513   -0.8202   -0.3199 C   0  0  0  0  0  0  0  0  0  0  0  0
    1.6738    0.0221    0.6012 N   0  0  0  0  0  0  0  0  0  0  0  0
    0.3358    0.2702    0.7258 C   0  0  0  0  0  0  0  0  0  0  0  0
   -0.5442   -0.3557   -0.1099 C   0  0  0  0  0  0  0  0  0  0  0  0
   -1.9118   -0.1787   -0.0716 C   0  0  0  0  0  0  0  0  0  0  0  0
   -2.7384   -0.8579   -0.9627 C   0  0  0  0  0  0  0  0  0  0  0  0
   -4.1211   -0.7047   -0.9539 O   0  0  0  0  0  0  0  0  0  0  0  0
   -4.7847    0.1183   -0.0781 C   0  0  0  0  0  0  0  0  0  0  0  0
   -5.5497    1.1491   -0.5841 C   0  0  0  0  0  0  0  0  0  0  0  0
   -6.2477    2.0198    0.2445 C   0  0  0  0  0  0  0  0  0  0  0  0
   -6.1897    1.8700    1.6109 C   0  0  0  0  0  0  0  0  0  0  0  0
   -6.8637    2.7082    2.4574 F   0  0  0  0  0  0  0  0  0  0  0  0
   -5.4277    0.8431    2.1191 C   0  0  0  0  0  0  0  0  0  0  0  0
   -4.7274   -0.0311    1.2961 C   0  0  0  0  0  0  0  0  0  0  0  0
   -3.9821   -1.0376    1.8336 F   0  0  0  0  0  0  0  0  0  0  0  0
   -2.1940   -1.7206   -1.8993 C   0  0  0  0  0  0  0  0  0  0  0  0
   -2.9691   -2.3318   -2.7050 O   0  0  0  0  0  0  0  0  0  0  0  0
   -0.8709   -1.8757   -1.9175 N   0  0  0  0  0  0  0  0  0  0  0  0
   -0.2957   -2.7750   -2.8929 C   0  0  0  0  0  0  0  0  0  0  0  0
   -0.0558   -1.2282   -1.0647 C   0  0  0  0  0  0  0  0  0  0  0  0
    1.2693   -1.4253   -1.1315 N   0  0  0  0  0  0  0  0  0  0  0  0
  1  2  1  0
  2  3  1  0
  3  4  1  1
  3  5  1  0
  5  6  1  0
  6  7  1  0
  7  8  2  0
  7  9  1  0
  9 10  1  6
 10 11  1  0
 11 12  1  0
 12 13  1  0
 13 14  1  0
  9 15  1  0
 15 16  1  0
 16 17  2  0
 16 18  1  0
 18 19  1  0
 19 20  1  0
 20 21  1  0
 21 22  1  0
 22 23  1  0
 25 24  1  6
 25 26  1  0
 26 27  1  0
 27 28  1  0
 28 29  2  0
 29 30  1  0
 30 31  2  0
 25 32  1  0
 32 33  1  0
 33 34  2  0
 34 35  1  0
 35 36  2  0
 36 37  1  0
 37 38  2  0
 38 39  1  0
 39 40  1  0
 40 41  2  0
 41 42  1  0
 42 43  2  0
 43 44  1  0
 43 45  1  0
 45 46  2  0
 46 47  1  0
 38 48  1  0
 48 49  2  0
 48 50  1  0
 50 51  1  0
 50 52  1  0
 52 53  2  0
 31 27  1  0
 53 33  1  0
 52 36  1  0
 46 40  1  0
M  CHG  2  14   1  23   1
M  END

