
     RDKit          3D

 24 25  0  0  0  0  0  0  0  0999 V2000
   -5.1834    1.3795    0.7340 O   0  0  0  0  0  1  0  0  0  0  0  0
   -5.4738    1.7707   -0.5603 C   0  0  0  0  0  0  0  0  0  0  0  0
   -6.0894    2.8345   -0.7247 O   0  0  0  0  0  0  0  0  0  0  0  0
   -5.0637    0.9476   -1.7110 C   0  0  0  0  0  0  0  0  0  0  0  0
   -4.3236   -0.2893   -1.3288 C   0  0  0  0  0  0  0  0  0  0  0  0
   -3.0912    0.0769   -0.5914 C   0  0  0  0  0  0  0  0  0  0  0  0
   -2.8043    1.2817   -0.3850 O   0  0  0  0  0  0  0  0  0  0  0  0
   -2.2347   -0.9271   -0.1181 N   0  0  0  0  0  0  0  0  0  0  0  0
   -2.2660   -2.3476   -0.1805 C   0  0  0  0  0  0  0  0  0  0  0  0
   -1.9386   -2.7182    1.2103 C   0  0  0  0  0  0  0  0  0  0  0  0
   -1.1666   -1.6801    1.8709 C   0  0  0  0  0  0  0  0  0  0  0  0
   -0.9180   -0.5668    0.6682 C   0  0  1  0  0  0  0  0  0  0  0  0
    0.0840   -1.4402   -0.2363 C   0  0  0  0  0  0  0  0  0  0  0  0
   -0.2497   -2.0907   -1.1802 O   0  0  0  0  0  0  0  0  0  0  0  0
    1.4434   -1.3856    0.1760 N   0  0  0  0  0  0  0  0  0  0  0  0
    2.5113   -2.1017   -0.5039 C   0  0  0  0  0  0  0  0  0  0  0  0
    3.8434   -1.8837    0.1172 C   0  0  0  0  0  0  0  0  0  0  0  0
    4.2194   -0.4420    0.1022 C   0  0  0  0  0  0  0  0  0  0  0  0
    3.9080    0.4297    1.1211 C   0  0  0  0  0  0  0  0  0  0  0  0
    4.2738    1.7664    1.0738 C   0  0  0  0  0  0  0  0  0  0  0  0
    4.9680    2.2790   -0.0015 C   0  0  0  0  0  0  0  0  0  0  0  0
    5.3536    3.6099   -0.0891 O   0  0  0  0  0  0  0  0  0  0  0  0
    5.2841    1.4130   -1.0265 C   0  0  0  0  0  0  0  0  0  0  0  0
    4.9141    0.0838   -0.9676 C   0  0  0  0  0  0  0  0  0  0  0  0
  1  2  1  0
  2  3  2  0
  2  4  1  0
  4  5  1  0
  5  6  1  0
  6  7  2  0
  6  8  1  0
  8  9  1  0
  9 10  1  0
 10 11  1  0
 11 12  1  0
 12 13  1  6
 13 14  2  0
 13 15  1  0
 15 16  1  0
 16 17  1  0
 17 18  1  0
 18 19  2  0
 19 20  1  0
 20 21  2  0
 21 22  1  0
 21 23  1  0
 23 24  2  0
 12  8  1  0
 24 18  1  0
M  RAD  1   1   2
M  END

