
     RDKit          3D

 45 48  0  0  0  0  0  0  0  0999 V2000
   -3.8394    2.0006   -1.1945 C   0  0  0  0  0  0  0  0  0  0  0  0
   -2.7362    1.6229   -0.2883 C   0  0  0  0  0  0  0  0  0  0  0  0
   -2.5846    2.3154    0.7399 O   0  0  0  0  0  0  0  0  0  0  0  0
   -1.9111    0.5415   -0.5826 N   0  0  0  0  0  0  0  0  0  0  0  0
   -0.7684    0.2053    0.4255 C   0  0  2  0  0  0  0  0  0  0  0  0
    0.3582   -0.1178   -0.6219 C   0  0  0  0  0  0  0  0  0  0  0  0
    0.1986   -0.1132   -1.8311 O   0  0  0  0  0  0  0  0  0  0  0  0
    1.6322   -0.4278   -0.0868 N   0  0  0  0  0  0  0  0  0  0  0  0
    2.8251   -0.7739   -0.8377 C   0  0  0  0  0  0  0  0  0  0  0  0
    3.8270    0.2001   -0.2472 C   0  0  0  0  0  0  0  0  0  0  0  0
    3.4076    0.2828    1.2109 C   0  0  0  0  0  0  0  0  0  0  0  0
    2.0858   -0.4764    1.2963 C   0  0  0  0  0  0  0  0  0  0  0  0
   -1.4077   -1.3498    0.7538 C   0  0  1  0  0  0  0  0  0  0  0  0
   -0.7747   -2.2143   -0.4620 C   0  0  0  0  0  0  0  0  0  0  0  0
   -0.3123   -1.6954    1.7256 O   0  0  0  0  0  0  0  0  0  0  0  0
    3.9335   -1.1592    1.2044 C   0  0  0  0  0  0  0  0  0  0  0  0
    4.4915   -1.3965   -0.3420 C   0  0  2  0  0  0  0  0  0  0  0  0
    5.9784   -0.7559    0.0029 C   0  0  0  0  0  0  0  0  0  0  0  0
    5.7933    0.5853    0.4305 N   0  0  0  0  0  0  0  0  0  0  0  0
    5.5986    1.0651    1.6365 N   0  0  0  0  0  0  0  0  0  0  0  0
    5.4802    2.3918    1.5292 C   0  0  0  0  0  0  0  0  0  0  0  0
    5.6039    2.7272    0.2434 N   0  0  0  0  0  0  0  0  0  0  0  0
    5.7934    1.6070   -0.4001 N   0  0  0  0  0  0  0  0  0  0  0  0
    3.8096   -0.0678   -0.8814 N   0  0  0  0  0  0  0  0  0  0  0  0
    2.3859   -0.0801   -0.7123 C   0  0  0  0  0  0  0  0  0  0  0  0
    1.6902    0.9660   -1.1188 N   0  0  0  0  0  0  0  0  0  0  0  0
    0.3505    1.0112   -0.9860 C   0  0  0  0  0  0  0  0  0  0  0  0
   -0.3403   -0.0511   -0.4129 C   0  0  0  0  0  0  0  0  0  0  0  0
   -1.6987   -0.0764   -0.2452 C   0  0  0  0  0  0  0  0  0  0  0  0
   -2.2859   -1.1870    0.3385 C   0  0  0  0  0  0  0  0  0  0  0  0
   -3.6578   -1.2660    0.5327 O   0  0  0  0  0  0  0  0  0  0  0  0
   -4.4380   -0.2126    0.1326 C   0  0  0  0  0  0  0  0  0  0  0  0
   -5.4208   -0.4315   -0.8158 C   0  0  0  0  0  0  0  0  0  0  0  0
   -6.2396    0.5833   -1.2618 C   0  0  0  0  0  0  0  0  0  0  0  0
   -6.0652    1.8631   -0.7370 C   0  0  0  0  0  0  0  0  0  0  0  0
   -6.8859    2.8285   -1.1990 F   0  0  0  0  0  0  0  0  0  0  0  0
   -5.0881    2.1005    0.2115 C   0  0  0  0  0  0  0  0  0  0  0  0
   -4.2991    1.0770    0.6283 C   0  0  0  0  0  0  0  0  0  0  0  0
   -3.3173    1.2570    1.5645 F   0  0  0  0  0  0  0  0  0  0  0  0
   -1.5374   -2.2749    0.7584 C   0  0  0  0  0  0  0  0  0  0  0  0
   -2.0983   -3.2691    1.2849 O   0  0  0  0  0  0  0  0  0  0  0  0
   -0.1976   -2.2240    0.5809 N   0  0  0  0  0  0  0  0  0  0  0  0
    0.5697   -3.3719    1.0265 C   0  0  0  0  0  0  0  0  0  0  0  0
    0.3803   -1.1375    0.0095 C   0  0  0  0  0  0  0  0  0  0  0  0
    1.7111   -1.1015   -0.1600 N   0  0  0  0  0  0  0  0  0  0  0  0
  1  2  1  0
  2  3  2  0
  2  4  1  0
  5  4  1  6
  5  6  1  0
  6  7  2  0
  6  8  1  0
  8  9  1  0
  9 10  1  0
 10 11  1  0
 11 12  1  0
  5 13  1  0
 13 14  1  6
 13 15  1  0
 17 16  1  1
 17 18  1  0
 18 19  1  0
 19 20  1  0
 20 21  2  0
 21 22  1  0
 22 23  2  0
 17 24  1  0
 24 25  1  0
 25 26  2  0
 26 27  1  0
 27 28  2  0
 28 29  1  0
 29 30  2  0
 30 31  1  0
 31 32  1  0
 32 33  2  0
 33 34  1  0
 34 35  2  0
 35 36  1  0
 35 37  1  0
 37 38  2  0
 38 39  1  0
 30 40  1  0
 40 41  2  0
 40 42  1  0
 42 43  1  0
 42 44  1  0
 44 45  2  0
 12  8  1  0
 23 19  1  0
 45 25  1  0
 44 28  1  0
 38 32  1  0
M  END

