
     RDKit          3D

 26 26  0  0  0  0  0  0  0  0999 V2000
   -5.6043   -1.6985    3.4899 C   0  0  0  0  0  0  0  0  0  0  0  0
   -4.6459   -1.3718    2.3516 C   0  0  0  0  0  0  0  0  0  0  0  0
   -5.4589   -0.3509    1.3634 C   0  0  2  0  0  0  0  0  0  0  0  0
   -6.6479   -1.4243    1.0463 C   0  0  0  0  0  0  0  0  0  0  0  0
   -4.5779   -0.7534    0.0397 C   0  0  0  0  0  0  0  0  0  0  0  0
   -3.2839   -0.3533    0.5471 N   0  0  0  0  0  0  0  0  0  0  0  0
   -2.1850   -0.5029   -0.2810 C   0  0  0  0  0  0  0  0  0  0  0  0
   -2.3172   -0.9488   -1.3811 O   0  0  0  0  0  0  0  0  0  0  0  0
   -0.8185   -0.0460    0.3442 C   0  0  2  0  0  0  0  0  0  0  0  0
   -1.0402    1.5181    0.3596 C   0  0  0  0  0  0  0  0  0  0  0  0
   -1.2609    2.2874   -0.7223 C   0  0  0  0  0  0  0  0  0  0  0  0
   -2.1736    2.4535   -1.7509 C   0  0  0  0  0  0  0  0  0  0  0  0
   -1.9345    3.4766   -2.7615 N   0  0  0  0  0  0  0  0  0  0  0  0
   -3.2248    1.8169   -1.9385 O   0  0  0  0  0  0  0  0  0  0  0  0
    0.0657   -0.1805   -0.9379 N   0  0  0  0  0  0  0  0  0  0  0  0
    1.2934   -0.8771   -0.6921 C   0  0  0  0  0  0  0  0  0  0  0  0
    1.5954   -1.3136    0.4400 O   0  0  0  0  0  0  0  0  0  0  0  0
    2.2177   -1.0777   -1.8225 C   0  0  0  0  0  0  0  0  0  0  0  0
    3.5372   -1.5909   -1.3642 C   0  0  0  0  0  0  0  0  0  0  0  0
    4.2790   -0.7005   -0.4617 C   0  0  0  0  0  0  0  0  0  0  0  0
    4.1969   -0.7497    0.9034 C   0  0  0  0  0  0  0  0  0  0  0  0
    4.9053    0.1184    1.7035 C   0  0  0  0  0  0  0  0  0  0  0  0
    5.7107    1.0521    1.0848 C   0  0  0  0  0  0  0  0  0  0  0  0
    6.4722    1.9799    1.8014 O   0  0  0  0  0  0  0  0  0  0  0  0
    5.8040    1.1159   -0.2881 C   0  0  0  0  0  0  0  0  0  0  0  0
    5.0961    0.2473   -1.0733 C   0  0  0  0  0  0  0  0  0  0  0  0
  1  2  1  0
  2  3  1  0
  3  4  1  6
  3  5  1  0
  5  6  1  0
  6  7  1  0
  7  8  2  0
  7  9  1  0
  9 10  1  6
 10 11  1  0
 11 12  1  0
 12 13  1  0
 12 14  2  0
  9 15  1  0
 15 16  1  0
 16 17  2  0
 16 18  1  0
 18 19  1  0
 19 20  1  0
 20 21  2  0
 21 22  1  0
 22 23  2  0
 23 24  1  0
 23 25  1  0
 25 26  2  0
 26 20  1  0
M  END

