
     RDKit          3D

 16 15  0  0  0  0  0  0  0  0999 V2000
    0.0987    4.2462    0.9799 C   0  0  0  0  0  0  0  0  0  0  0  0
   -0.0596    4.0015   -0.4994 C   0  0  0  0  0  0  0  0  0  0  0  0
   -0.4996    2.6509   -0.7697 N   0  0  0  0  0  0  0  0  0  0  0  0
    0.1768    1.4960   -0.4208 C   0  0  0  0  0  0  0  0  0  0  0  0
    1.2367    1.5629    0.1646 O   0  0  0  0  0  0  0  0  0  0  0  0
   -0.3594    0.0583   -0.7458 C   0  0  2  0  0  0  0  0  0  0  0  0
   -1.3177   -0.1083    0.6075 C   0  0  0  0  0  0  0  0  0  0  0  0
   -1.8866   -1.4799    0.3863 C   0  0  0  0  0  0  0  0  0  0  0  0
   -2.7898   -1.8379    1.5006 C   0  0  0  0  0  0  0  0  0  0  0  0
   -3.4465   -3.0732    1.5248 N   0  0  0  0  0  0  0  0  0  0  0  0
   -2.9633   -1.0312    2.4202 O   0  0  0  0  0  0  0  0  0  0  0  0
    0.8241   -0.7636   -0.1108 N   0  0  0  0  0  0  0  0  0  0  0  0
    1.8925   -1.0638   -0.9787 C   0  0  0  0  0  0  0  0  0  0  0  0
    1.9574   -0.7289   -2.1834 O   0  0  0  0  0  0  0  0  0  0  0  0
    3.0353   -1.8396   -0.4232 C   0  0  0  0  0  0  0  0  0  0  0  0
    4.1011   -2.0894   -1.4522 C   0  0  0  0  0  0  0  0  0  0  0  0
  1  2  1  0
  2  3  1  0
  3  4  1  0
  4  5  2  0
  4  6  1  0
  6  7  1  1
  7  8  1  0
  8  9  1  0
  9 10  1  0
  9 11  2  0
  6 12  1  0
 12 13  1  0
 13 14  2  0
 13 15  1  0
 15 16  1  0
M  END

