
     RDKit          3D

 53 56  0  0  0  0  0  0  0  0999 V2000
   -1.9163    2.8635    1.4864 C   0  0  0  0  0  0  0  0  0  0  0  0
   -1.9199    3.1253    0.0446 C   0  0  0  0  0  0  0  0  0  0  0  0
   -1.3220    4.4202   -0.4060 C   0  0  0  0  0  0  0  0  0  0  0  0
   -2.3850    2.3153   -0.9899 C   0  0  0  0  0  0  0  0  0  0  0  0
   -1.8177    0.8755   -1.2509 C   0  0  2  0  0  0  0  0  0  0  0  0
   -2.1260    0.2534    0.1252 N   0  0  0  0  0  0  0  0  0  0  0  0
   -3.2600   -0.4629    0.4345 C   0  0  0  0  0  0  0  0  0  0  0  0
   -4.1534   -0.5714   -0.4433 O   0  0  0  0  0  0  0  0  0  0  0  0
   -3.4423   -1.1036    1.7756 C   0  0  0  0  0  0  0  0  0  0  0  0
   -4.9248   -1.8108    1.7460 C   0  0  1  0  0  0  0  0  0  0  0  0
   -4.4710   -2.7577    0.3998 C   0  0  0  0  0  0  0  0  0  0  0  0
   -4.5017   -2.9603    2.6897 O   0  0  0  0  0  0  0  0  0  0  0  0
   -0.2702    1.1101   -0.8726 C   0  0  0  0  0  0  0  0  0  0  0  0
    0.1527    2.1570   -0.4611 O   0  0  0  0  0  0  0  0  0  0  0  0
    0.4707   -0.0738   -1.0520 N   0  0  0  0  0  0  0  0  0  0  0  0
    1.7338   -0.3939   -0.8385 C   0  0  0  0  0  0  0  0  0  0  0  0
    2.9664    0.0602   -1.4902 C   0  0  0  0  0  0  0  0  0  0  0  0
    4.1028   -0.5640   -0.7872 C   0  0  0  0  0  0  0  0  0  0  0  0
    4.4008   -1.8807   -1.0159 C   0  0  0  0  0  0  0  0  0  0  0  0
    5.4765   -2.4652   -0.3833 C   0  0  0  0  0  0  0  0  0  0  0  0
    6.3012   -1.8161    0.4796 C   0  0  0  0  0  0  0  0  0  0  0  0
    5.9912   -0.4439    0.7198 C   0  0  0  0  0  0  0  0  0  0  0  0
    4.9141    0.1241    0.0897 C   0  0  0  0  0  0  0  0  0  0  0  0
    3.7481    1.2716   -1.0206 C   0  0  0  0  0  0  0  0  0  0  0  0
    3.9695    1.9743    0.4637 C   0  0  2  0  0  0  0  0  0  0  0  0
    5.6137    1.8944    0.4105 C   0  0  0  0  0  0  0  0  0  0  0  0
    5.9815    0.5144    0.2821 N   0  0  0  0  0  0  0  0  0  0  0  0
    6.2324   -0.4071    1.1705 N   0  0  0  0  0  0  0  0  0  0  0  0
    6.5353   -1.5538    0.5456 C   0  0  0  0  0  0  0  0  0  0  0  0
    6.4614   -1.3034   -0.7609 N   0  0  0  0  0  0  0  0  0  0  0  0
    6.1262   -0.0511   -0.8958 N   0  0  0  0  0  0  0  0  0  0  0  0
    3.7884    0.6271    1.2555 N   0  0  0  0  0  0  0  0  0  0  0  0
    2.5004    0.0580    1.0172 C   0  0  0  0  0  0  0  0  0  0  0  0
    2.1802   -1.1214    1.6340 N   0  0  0  0  0  0  0  0  0  0  0  0
    0.9715   -1.6565    1.4110 C   0  0  0  0  0  0  0  0  0  0  0  0
    0.0401   -1.0725    0.5904 C   0  0  0  0  0  0  0  0  0  0  0  0
   -1.2027   -1.6355    0.3694 C   0  0  0  0  0  0  0  0  0  0  0  0
   -2.0619   -0.9498   -0.4834 C   0  0  0  0  0  0  0  0  0  0  0  0
   -3.3111   -1.5037   -0.7132 O   0  0  0  0  0  0  0  0  0  0  0  0
   -4.4540   -0.7696   -0.3698 C   0  0  0  0  0  0  0  0  0  0  0  0
   -5.4106   -0.3980   -1.2670 C   0  0  0  0  0  0  0  0  0  0  0  0
   -6.5148    0.3282   -0.8524 C   0  0  0  0  0  0  0  0  0  0  0  0
   -6.6745    0.6883    0.4523 C   0  0  0  0  0  0  0  0  0  0  0  0
   -7.7404    1.4030    0.9190 F   0  0  0  0  0  0  0  0  0  0  0  0
   -5.7110    0.3152    1.3616 C   0  0  0  0  0  0  0  0  0  0  0  0
   -4.6048   -0.4106    0.9545 C   0  0  0  0  0  0  0  0  0  0  0  0
   -3.6496   -0.7806    1.8563 F   0  0  0  0  0  0  0  0  0  0  0  0
   -1.7161    0.2226   -1.0834 C   0  0  0  0  0  0  0  0  0  0  0  0
   -2.4990    0.8362   -1.8532 O   0  0  0  0  0  0  0  0  0  0  0  0
   -0.4755    0.7514   -0.8413 N   0  0  0  0  0  0  0  0  0  0  0  0
   -0.0852    1.9968   -1.4679 C   0  0  0  0  0  0  0  0  0  0  0  0
    0.3748    0.1151   -0.0249 C   0  0  0  0  0  0  0  0  0  0  0  0
    1.5878    0.6173    0.2215 N   0  0  0  0  0  0  0  0  0  0  0  0
  1  2  1  0
  2  3  1  0
  2  4  1  0
  5  4  1  1
  5  6  1  0
  6  7  1  0
  7  8  2  0
  7  9  1  0
  9 10  1  0
 10 11  1  6
 10 12  1  0
  5 13  1  0
 13 14  2  0
 13 15  1  0
 15 16  1  0
 16 17  1  0
 17 18  1  0
 18 19  2  0
 19 20  1  0
 20 21  2  0
 21 22  1  0
 22 23  2  0
 25 24  1  6
 25 26  1  0
 26 27  1  0
 27 28  1  0
 28 29  2  0
 29 30  1  0
 30 31  2  0
 25 32  1  0
 32 33  1  0
 33 34  2  0
 34 35  1  0
 35 36  2  0
 36 37  1  0
 37 38  2  0
 38 39  1  0
 39 40  1  0
 40 41  2  0
 41 42  1  0
 42 43  2  0
 43 44  1  0
 43 45  1  0
 45 46  2  0
 46 47  1  0
 38 48  1  0
 48 49  2  0
 48 50  1  0
 50 51  1  0
 50 52  1  0
 52 53  2  0
 23 18  1  0
 31 27  1  0
 53 33  1  0
 52 36  1  0
 46 40  1  0
M  END

