
     RDKit          3D

 52 54  0  0  0  0  0  0  0  0999 V2000
   -5.5821   -0.9721   -0.5567 C   0  0  0  0  0  0  0  0  0  0  0  0
   -4.0233   -1.0521   -0.3287 C   0  0  0  0  0  0  0  0  0  0  0  0
   -3.5489    0.2047   -1.1138 C   0  0  0  0  0  0  0  0  0  0  0  0
   -3.7719   -0.9016    1.1185 C   0  0  0  0  0  0  0  0  0  0  0  0
   -2.5192   -0.9709    1.7542 C   0  0  0  0  0  0  0  0  0  0  0  0
   -1.4337   -0.1990    1.4712 N   0  0  0  0  0  0  0  0  0  0  0  0
   -0.6295   -0.1215    0.3589 C   0  0  0  0  0  0  0  0  0  0  0  0
   -0.7523   -0.8033   -0.6414 O   0  0  0  0  0  0  0  0  0  0  0  0
    0.5647    0.9230    0.3280 C   0  0  2  0  0  0  0  0  0  0  0  0
   -0.3778    2.1824   -0.1904 C   0  0  0  0  0  0  0  0  0  0  0  0
   -1.3984    2.2853    0.9331 C   0  0  0  0  0  0  0  0  0  0  0  0
   -0.6358    2.5756    2.2026 C   0  0  0  0  0  0  0  0  0  0  0  0
    0.1425    3.8668    2.0996 C   0  0  0  0  0  0  0  0  0  0  0  0
   -0.7572    4.9730    1.8519 N   0  0  0  0  0  4  0  0  0  0  0  0
    1.0930    0.5896   -1.1109 N   0  0  0  0  0  0  0  0  0  0  0  0
    1.8096   -0.6492   -1.1291 C   0  0  0  0  0  0  0  0  0  0  0  0
    1.9699   -1.3465   -0.0930 O   0  0  0  0  0  0  0  0  0  0  0  0
    2.3867   -1.1376   -2.4045 C   0  0  0  0  0  0  0  0  0  0  0  0
    3.1235   -2.4357   -2.1200 C   0  0  0  0  0  0  0  0  0  0  0  0
    4.2258   -2.2360   -1.1218 C   0  0  0  0  0  0  0  0  0  0  0  0
    5.2402   -1.2606   -1.5871 C   0  0  0  0  0  0  0  0  0  0  0  0
    4.8743   -3.5143   -0.6941 C   0  0  0  0  0  0  0  0  0  0  0  0
    3.4160   -1.1369   -1.9471 C   0  0  0  0  0  0  0  0  0  0  0  0
    4.0642    0.2848   -1.3333 C   0  0  2  0  0  0  0  0  0  0  0  0
    5.6247   -0.3071   -1.4680 C   0  0  0  0  0  0  0  0  0  0  0  0
    6.4145    0.8030   -0.9701 N   0  0  0  0  0  0  0  0  0  0  0  0
    6.7313    0.9268    0.3138 N   0  0  0  0  0  0  0  0  0  0  0  0
    7.4560    2.0225    0.5105 C   0  0  0  0  0  0  0  0  0  0  0  0
    7.5939    2.5999   -0.6967 N   0  0  0  0  0  0  0  0  0  0  0  0
    6.9450    1.8262   -1.5726 N   0  0  0  0  0  0  0  0  0  0  0  0
    3.9290   -0.2216    0.1597 N   0  0  0  0  0  0  0  0  0  0  0  0
    2.5683   -0.5158    0.5256 C   0  0  0  0  0  0  0  0  0  0  0  0
    2.3359   -0.9571    1.7819 N   0  0  0  0  0  0  0  0  0  0  0  0
    1.0636   -1.2282    2.1118 C   0  0  0  0  0  0  0  0  0  0  0  0
   -0.0012   -1.0840    1.2548 C   0  0  0  0  0  0  0  0  0  0  0  0
   -1.3115   -1.3522    1.5610 C   0  0  0  0  0  0  0  0  0  0  0  0
   -2.3392   -1.1789    0.6298 C   0  0  0  0  0  0  0  0  0  0  0  0
   -3.6293   -1.4671    1.0050 O   0  0  0  0  0  0  0  0  0  0  0  0
   -4.5699   -0.4619    0.9577 C   0  0  0  0  0  0  0  0  0  0  0  0
   -4.2580    0.8108    0.5494 C   0  0  0  0  0  0  0  0  0  0  0  0
   -5.2021    1.8074    0.5053 C   0  0  0  0  0  0  0  0  0  0  0  0
   -6.4980    1.5372    0.8770 C   0  0  0  0  0  0  0  0  0  0  0  0
   -7.4734    2.5020    0.8485 F   0  0  0  0  0  0  0  0  0  0  0  0
   -6.7873    0.2533    1.2830 C   0  0  0  0  0  0  0  0  0  0  0  0
   -5.8519   -0.7532    1.3318 C   0  0  0  0  0  0  0  0  0  0  0  0
   -6.1961   -2.0060    1.7422 F   0  0  0  0  0  0  0  0  0  0  0  0
   -1.9719   -0.7239   -0.6154 C   0  0  0  0  0  0  0  0  0  0  0  0
   -2.8683   -0.5522   -1.4904 O   0  0  0  0  0  0  0  0  0  0  0  0
   -0.6877   -0.4601   -0.9183 N   0  0  0  0  0  0  0  0  0  0  0  0
   -0.3495    0.0208   -2.2540 C   0  0  0  0  0  0  0  0  0  0  0  0
    0.2825   -0.6296   -0.0213 C   0  0  0  0  0  0  0  0  0  0  0  0
    1.5705   -0.3591   -0.3431 N   0  0  0  0  0  0  0  0  0  0  0  0
  1  2  1  0
  2  3  1  0
  2  4  1  0
  4  5  1  0
  5  6  1  0
  6  7  1  0
  7  8  2  0
  7  9  1  0
  9 10  1  6
 10 11  1  0
 11 12  1  0
 12 13  1  0
 13 14  1  0
  9 15  1  0
 15 16  1  0
 16 17  2  0
 16 18  1  0
 18 19  1  0
 19 20  1  0
 20 21  1  0
 20 22  1  0
 24 23  1  6
 24 25  1  0
 25 26  1  0
 26 27  1  0
 27 28  2  0
 28 29  1  0
 29 30  2  0
 24 31  1  0
 31 32  1  0
 32 33  2  0
 33 34  1  0
 34 35  2  0
 35 36  1  0
 36 37  2  0
 37 38  1  0
 38 39  1  0
 39 40  2  0
 40 41  1  0
 41 42  2  0
 42 43  1  0
 42 44  1  0
 44 45  2  0
 45 46  1  0
 37 47  1  0
 47 48  2  0
 47 49  1  0
 49 50  1  0
 49 51  1  0
 51 52  2  0
 30 26  1  0
 52 32  1  0
 51 35  1  0
 45 39  1  0
M  CHG  1  14   1
M  END

