
     RDKit          3D

 48 50  0  0  0  0  0  0  0  0999 V2000
    0.1095    3.8007    1.2557 C   0  0  0  0  0  0  0  0  0  0  0  0
    0.3189    2.3227    0.9412 C   0  0  0  0  0  0  0  0  0  0  0  0
    0.9046    2.3068   -0.5674 C   0  0  2  0  0  0  0  0  0  0  0  0
   -0.3628    3.0363   -1.2488 C   0  0  0  0  0  0  0  0  0  0  0  0
    0.5601    0.7519   -1.0283 C   0  0  2  0  0  0  0  0  0  0  0  0
   -0.8325    0.5533   -0.9329 N   0  0  0  0  0  0  0  0  0  0  0  0
   -1.6484   -0.1345   -0.1213 C   0  0  0  0  0  0  0  0  0  0  0  0
   -1.1128   -0.7740    0.8041 O   0  0  0  0  0  0  0  0  0  0  0  0
   -3.1452   -0.2020   -0.2282 C   0  0  0  0  0  0  0  0  0  0  0  0
   -3.6607   -1.2142    0.7384 C   0  0  0  0  0  0  0  0  0  0  0  0
   -3.1093   -2.6091    0.4878 C   0  0  0  0  0  0  0  0  0  0  0  0
   -5.1756   -1.2271    0.7998 C   0  0  0  0  0  0  0  0  0  0  0  0
    1.4523   -0.1259   -0.2274 C   0  0  0  0  0  0  0  0  0  0  0  0
    1.1143   -1.3087   -0.0851 O   0  0  0  0  0  0  0  0  0  0  0  0
    2.6649    0.2143    0.4046 N   0  0  0  0  0  0  0  0  0  0  0  0
    3.4798   -0.7316    1.1716 C   0  0  0  0  0  0  0  0  0  0  0  0
    3.8317   -1.8459    0.1635 C   0  0  0  0  0  0  0  0  0  0  0  0
    4.6112   -2.8133    0.7540 O   0  0  0  0  0  0  0  0  0  0  0  0
    4.4053    2.5909   -1.0659 C   0  0  0  0  0  0  0  0  0  0  0  0
    5.2236    1.6058   -0.0274 C   0  0  2  0  0  0  0  0  0  0  0  0
    4.8790    0.2422   -0.8705 C   0  0  0  0  0  0  0  0  0  0  0  0
    5.5408   -0.7949   -0.0854 N   0  0  0  0  0  0  0  0  0  0  0  0
    5.0692   -1.5138    0.9144 N   0  0  0  0  0  0  0  0  0  0  0  0
    6.0281   -2.3592    1.3490 C   0  0  0  0  0  0  0  0  0  0  0  0
    7.1135   -2.1467    0.5902 N   0  0  0  0  0  0  0  0  0  0  0  0
    6.7876   -1.1959   -0.2671 N   0  0  0  0  0  0  0  0  0  0  0  0
    4.0226    1.4664    0.9631 N   0  0  0  0  0  0  0  0  0  0  0  0
    2.8003    0.9986    0.4237 C   0  0  0  0  0  0  0  0  0  0  0  0
    2.6221    0.6750   -0.8734 N   0  0  0  0  0  0  0  0  0  0  0  0
    1.4400    0.2343   -1.3389 C   0  0  0  0  0  0  0  0  0  0  0  0
    0.3430    0.0895   -0.5108 C   0  0  0  0  0  0  0  0  0  0  0  0
   -0.8694   -0.3502   -0.9321 C   0  0  0  0  0  0  0  0  0  0  0  0
   -1.9881   -0.4870   -0.0365 C   0  0  0  0  0  0  0  0  0  0  0  0
   -3.1366   -0.9337   -0.5706 O   0  0  0  0  0  0  0  0  0  0  0  0
   -4.3970   -0.5356   -0.7953 C   0  0  0  0  0  0  0  0  0  0  0  0
   -4.7824   -0.3722   -2.1748 C   0  0  0  0  0  0  0  0  0  0  0  0
   -6.0335    0.0251   -2.5079 C   0  0  0  0  0  0  0  0  0  0  0  0
   -7.0188    0.2997   -1.5855 C   0  0  0  0  0  0  0  0  0  0  0  0
   -8.2273    0.6899   -2.0405 F   0  0  0  0  0  0  0  0  0  0  0  0
   -6.6836    0.1524   -0.2657 C   0  0  0  0  0  0  0  0  0  0  0  0
   -5.3839   -0.2614    0.0937 C   0  0  0  0  0  0  0  0  0  0  0  0
   -5.1295   -0.4315    1.4236 F   0  0  0  0  0  0  0  0  0  0  0  0
   -1.6892   -0.1320    1.2493 C   0  0  0  0  0  0  0  0  0  0  0  0
   -2.5273   -0.1870    2.1667 O   0  0  0  0  0  0  0  0  0  0  0  0
   -0.4623    0.3111    1.6639 N   0  0  0  0  0  0  0  0  0  0  0  0
   -0.2319    0.6718    3.0672 C   0  0  0  0  0  0  0  0  0  0  0  0
    0.5463    0.4280    0.8225 C   0  0  0  0  0  0  0  0  0  0  0  0
    1.7393    0.8577    1.2208 N   0  0  0  0  0  0  0  0  0  0  0  0
  1  2  1  0
  2  3  1  0
  3  4  1  6
  3  5  1  0
  5  6  1  1
  6  7  1  0
  7  8  2  0
  7  9  1  0
  9 10  1  0
 10 11  1  0
 10 12  1  0
  5 13  1  0
 13 14  2  0
 13 15  1  0
 15 16  1  0
 16 17  1  0
 17 18  1  0
 20 19  1  6
 20 21  1  0
 21 22  1  0
 22 23  1  0
 23 24  2  0
 24 25  1  0
 25 26  2  0
 20 27  1  0
 27 28  1  0
 28 29  2  0
 29 30  1  0
 30 31  2  0
 31 32  1  0
 32 33  2  0
 33 34  1  0
 34 35  1  0
 35 36  2  0
 36 37  1  0
 37 38  2  0
 38 39  1  0
 38 40  1  0
 40 41  2  0
 41 42  1  0
 33 43  1  0
 43 44  2  0
 43 45  1  0
 45 46  1  0
 45 47  1  0
 47 48  2  0
 26 22  1  0
 48 28  1  0
 47 31  1  0
 41 35  1  0
M  END

