
     RDKit          3D

 51 54  0  0  0  0  0  0  0  0999 V2000
   -1.3179   -3.8528    0.3427 C   0  0  0  0  0  0  0  0  0  0  0  0
   -2.3308   -2.7291    0.3159 C   0  0  0  0  0  0  0  0  0  0  0  0
   -1.6736   -1.4745    0.6203 N   0  0  0  0  0  0  0  0  0  0  0  0
   -0.6306   -0.9279   -0.1393 C   0  0  0  0  0  0  0  0  0  0  0  0
   -0.2304   -1.5072   -1.1178 O   0  0  0  0  0  0  0  0  0  0  0  0
   -0.0757    0.4440    0.4062 C   0  0  2  0  0  0  0  0  0  0  0  0
   -1.0962    1.4099   -0.4359 C   0  0  0  0  0  0  0  0  0  0  0  0
   -2.4633    1.0868   -0.0877 C   0  0  0  0  0  0  0  0  0  0  0  0
   -3.0520    1.5981    1.0308 C   0  0  0  0  0  0  0  0  0  0  0  0
   -4.3817    1.3178    1.3722 C   0  0  0  0  0  0  0  0  0  0  0  0
   -5.0685    0.4911    0.5081 C   0  0  0  0  0  0  0  0  0  0  0  0
   -4.4980   -0.0300   -0.6165 C   0  0  0  0  0  0  0  0  0  0  0  0
   -3.2057    0.2706   -0.9039 C   0  0  0  0  0  0  0  0  0  0  0  0
    1.0997    0.6080   -0.6805 N   0  0  0  0  0  0  0  0  0  0  0  0
    2.3776    0.2371   -0.1928 C   0  0  0  0  0  0  0  0  0  0  0  0
    2.5755   -0.1646    0.9442 O   0  0  0  0  0  0  0  0  0  0  0  0
    3.5008    0.3602   -1.1524 C   0  0  0  0  0  0  0  0  0  0  0  0
    4.8117   -0.0956   -0.5589 C   0  0  0  0  0  0  0  0  0  0  0  0
    5.0947    0.7600    0.6119 C   0  0  0  0  0  0  0  0  0  0  0  0
    6.2014    0.4418    1.4863 N   0  0  0  0  0  0  0  0  0  0  0  0
    4.3630    1.7563    0.8261 O   0  0  0  0  0  0  0  0  0  0  0  0
    5.7493   -0.9244    1.3697 C   0  0  0  0  0  0  0  0  0  0  0  0
    4.5941   -0.9089    0.1750 C   0  0  2  0  0  0  0  0  0  0  0  0
    5.0160    0.6166   -0.3297 C   0  0  0  0  0  0  0  0  0  0  0  0
    6.4075    0.3672   -0.6940 N   0  0  0  0  0  0  0  0  0  0  0  0
    7.4332    0.4865    0.1252 N   0  0  0  0  0  0  0  0  0  0  0  0
    8.5851    0.1807   -0.5331 C   0  0  0  0  0  0  0  0  0  0  0  0
    8.2183   -0.1303   -1.7888 N   0  0  0  0  0  0  0  0  0  0  0  0
    6.8972   -0.0059   -1.8459 N   0  0  0  0  0  0  0  0  0  0  0  0
    3.4709   -0.3783    1.1499 N   0  0  0  0  0  0  0  0  0  0  0  0
    2.2512   -0.2191    0.4790 C   0  0  0  0  0  0  0  0  0  0  0  0
    2.0954   -0.4902   -0.8148 N   0  0  0  0  0  0  0  0  0  0  0  0
    0.8841   -0.3171   -1.4190 C   0  0  0  0  0  0  0  0  0  0  0  0
   -0.2035    0.1409   -0.7065 C   0  0  0  0  0  0  0  0  0  0  0  0
   -1.4454    0.3311   -1.2731 C   0  0  0  0  0  0  0  0  0  0  0  0
   -2.4652    0.7930   -0.4708 C   0  0  0  0  0  0  0  0  0  0  0  0
   -3.7230    0.9838   -1.0519 O   0  0  0  0  0  0  0  0  0  0  0  0
   -4.8220    0.2886   -0.5812 C   0  0  0  0  0  0  0  0  0  0  0  0
   -5.9186    0.9756   -0.0771 C   0  0  0  0  0  0  0  0  0  0  0  0
   -7.0411    0.3331    0.4054 C   0  0  0  0  0  0  0  0  0  0  0  0
   -7.0217   -1.0582    0.3622 C   0  0  0  0  0  0  0  0  0  0  0  0
   -8.0996   -1.7179    0.8244 F   0  0  0  0  0  0  0  0  0  0  0  0
   -5.9411   -1.7438   -0.1348 C   0  0  0  0  0  0  0  0  0  0  0  0
   -4.8334   -1.0776   -0.6102 C   0  0  0  0  0  0  0  0  0  0  0  0
   -3.7684   -1.7551   -1.1000 F   0  0  0  0  0  0  0  0  0  0  0  0
   -2.2904    1.0700    0.8686 C   0  0  0  0  0  0  0  0  0  0  0  0
   -3.2730    1.4887    1.5326 O   0  0  0  0  0  0  0  0  0  0  0  0
   -1.0697    0.8758    1.3954 N   0  0  0  0  0  0  0  0  0  0  0  0
   -0.8395    1.1497    2.7824 C   0  0  0  0  0  0  0  0  0  0  0  0
   -0.0353    0.4199    0.6339 C   0  0  0  0  0  0  0  0  0  0  0  0
    1.1887    0.2256    1.1636 N   0  0  0  0  0  0  0  0  0  0  0  0
  1  2  1  0
  2  3  1  0
  3  4  1  0
  4  5  2  0
  4  6  1  0
  6  7  1  6
  7  8  1  0
  8  9  2  0
  9 10  1  0
 10 11  2  0
 11 12  1  0
 12 13  2  0
  6 14  1  0
 14 15  1  0
 15 16  2  0
 15 17  1  0
 17 18  1  0
 18 19  1  0
 19 20  1  0
 19 21  2  0
 23 22  1  1
 23 24  1  0
 24 25  1  0
 25 26  1  0
 26 27  2  0
 27 28  1  0
 28 29  2  0
 23 30  1  0
 30 31  1  0
 31 32  2  0
 32 33  1  0
 33 34  2  0
 34 35  1  0
 35 36  2  0
 36 37  1  0
 37 38  1  0
 38 39  2  0
 39 40  1  0
 40 41  2  0
 41 42  1  0
 41 43  1  0
 43 44  2  0
 44 45  1  0
 36 46  1  0
 46 47  2  0
 46 48  1  0
 48 49  1  0
 48 50  1  0
 50 51  2  0
 13  8  1  0
 29 25  1  0
 51 31  1  0
 50 34  1  0
 44 38  1  0
M  END

