
     RDKit          3D

 46 48  0  0  0  0  0  0  0  0999 V2000
   -2.7624   -3.2575    0.5311 C   0  0  0  0  0  0  0  0  0  0  0  0
   -1.6083   -2.3076    0.1436 C   0  0  0  0  0  0  0  0  0  0  0  0
   -2.2756   -0.8299    0.3709 C   0  0  2  0  0  0  0  0  0  0  0  0
   -3.4403   -1.0047   -0.6844 C   0  0  0  0  0  0  0  0  0  0  0  0
   -1.1180   -0.0987   -0.7048 C   0  0  2  0  0  0  0  0  0  0  0  0
    0.0110   -0.4743    0.2445 N   0  0  0  0  0  0  0  0  0  0  0  0
    1.3339   -0.1513   -0.2451 C   0  0  0  0  0  0  0  0  0  0  0  0
    1.3878    0.3931   -1.3852 O   0  0  0  0  0  0  0  0  0  0  0  0
    2.4946   -0.4589    0.5647 C   0  0  0  0  0  0  0  0  0  0  0  0
    3.7762   -0.4454   -0.2212 C   0  0  0  0  0  0  0  0  0  0  0  0
    3.7977   -1.4309   -1.3338 C   0  0  0  0  0  0  0  0  0  0  0  0
    4.2399    0.9219   -0.5937 C   0  0  0  0  0  0  0  0  0  0  0  0
   -1.4169    1.3355   -0.3170 C   0  0  0  0  0  0  0  0  0  0  0  0
   -2.4825    1.5356    0.3748 O   0  0  0  0  0  0  0  0  0  0  0  0
   -0.6833    2.5049   -0.5888 N   0  0  0  0  0  0  0  0  0  0  0  0
   -1.2538    3.7683   -0.0736 C   0  0  0  0  0  0  0  0  0  0  0  0
    4.1716   -0.7188   -1.3561 C   0  0  0  0  0  0  0  0  0  0  0  0
    4.4675    0.8888   -1.6286 C   0  0  2  0  0  0  0  0  0  0  0  0
    6.0760    0.7573   -1.2899 C   0  0  0  0  0  0  0  0  0  0  0  0
    6.2171    0.2858    0.0460 N   0  0  0  0  0  0  0  0  0  0  0  0
    6.2982   -0.9135    0.5615 N   0  0  0  0  0  0  0  0  0  0  0  0
    6.4234   -0.8476    1.8787 C   0  0  0  0  0  0  0  0  0  0  0  0
    6.4212    0.4558    2.2113 N   0  0  0  0  0  0  0  0  0  0  0  0
    6.2946    1.1187    1.0781 N   0  0  0  0  0  0  0  0  0  0  0  0
    4.0453    1.3210   -0.1686 N   0  0  0  0  0  0  0  0  0  0  0  0
    2.7045    0.9966    0.1648 C   0  0  0  0  0  0  0  0  0  0  0  0
    2.2699    1.3315    1.3884 N   0  0  0  0  0  0  0  0  0  0  0  0
    1.0091    1.0453    1.7496 C   0  0  0  0  0  0  0  0  0  0  0  0
    0.1482    0.4043    0.8667 C   0  0  0  0  0  0  0  0  0  0  0  0
   -1.1232    0.1030    1.1977 C   0  0  0  0  0  0  0  0  0  0  0  0
   -2.0405   -0.5555    0.3184 C   0  0  0  0  0  0  0  0  0  0  0  0
   -3.2614   -0.7882    0.7850 O   0  0  0  0  0  0  0  0  0  0  0  0
   -4.5455   -0.5008    0.6080 C   0  0  0  0  0  0  0  0  0  0  0  0
   -5.1827    0.2114    1.6665 C   0  0  0  0  0  0  0  0  0  0  0  0
   -6.4788    0.5596    1.6088 C   0  0  0  0  0  0  0  0  0  0  0  0
   -7.2673    0.2480    0.5219 C   0  0  0  0  0  0  0  0  0  0  0  0
   -8.5615    0.6230    0.5176 F   0  0  0  0  0  0  0  0  0  0  0  0
   -6.7035   -0.4352   -0.5197 C   0  0  0  0  0  0  0  0  0  0  0  0
   -5.3455   -0.7964   -0.4507 C   0  0  0  0  0  0  0  0  0  0  0  0
   -4.9121   -1.4960   -1.5307 F   0  0  0  0  0  0  0  0  0  0  0  0
   -1.5182   -0.8600   -0.9011 C   0  0  0  0  0  0  0  0  0  0  0  0
   -2.1611   -1.4411   -1.8104 O   0  0  0  0  0  0  0  0  0  0  0  0
   -0.2226   -0.5488   -1.2290 N   0  0  0  0  0  0  0  0  0  0  0  0
    0.2947   -0.8929   -2.5466 C   0  0  0  0  0  0  0  0  0  0  0  0
    0.6038    0.0663   -0.3831 C   0  0  0  0  0  0  0  0  0  0  0  0
    1.8787    0.3783   -0.6913 N   0  0  0  0  0  0  0  0  0  0  0  0
  1  2  1  0
  2  3  1  0
  3  4  1  6
  3  5  1  0
  5  6  1  1
  6  7  1  0
  7  8  2  0
  7  9  1  0
  9 10  1  0
 10 11  1  0
 10 12  1  0
  5 13  1  0
 13 14  2  0
 13 15  1  0
 15 16  1  0
 18 17  1  1
 18 19  1  0
 19 20  1  0
 20 21  1  0
 21 22  2  0
 22 23  1  0
 23 24  2  0
 18 25  1  0
 25 26  1  0
 26 27  2  0
 27 28  1  0
 28 29  2  0
 29 30  1  0
 30 31  2  0
 31 32  1  0
 32 33  1  0
 33 34  2  0
 34 35  1  0
 35 36  2  0
 36 37  1  0
 36 38  1  0
 38 39  2  0
 39 40  1  0
 31 41  1  0
 41 42  2  0
 41 43  1  0
 43 44  1  0
 43 45  1  0
 45 46  2  0
 24 20  1  0
 46 26  1  0
 45 29  1  0
 39 33  1  0
M  END

