
     RDKit          3D

 27 28  0  0  0  0  0  0  0  0999 V2000
    4.3070    2.6671   -1.2964 C   0  0  0  0  0  0  0  0  0  0  0  0
    4.9864    2.9472   -0.0205 C   0  0  0  0  0  0  0  0  0  0  0  0
    5.6519    4.2742    0.0931 C   0  0  0  0  0  0  0  0  0  0  0  0
    4.3335    2.5675    1.2371 C   0  0  0  0  0  0  0  0  0  0  0  0
    4.0105    1.1485    1.4782 C   0  0  0  0  0  0  0  0  0  0  0  0
    3.0355    0.5122    0.5662 C   0  0  0  0  0  0  0  0  0  0  0  0
    2.3672    1.2697   -0.1821 O   0  0  0  0  0  0  0  0  0  0  0  0
    2.8530   -0.9133    0.5281 N   0  0  0  0  0  0  0  0  0  0  0  0
    1.7441   -1.3027   -0.5413 C   0  0  1  0  0  0  0  0  0  0  0  0
    2.2358   -2.8916   -0.5578 C   0  0  0  0  0  0  0  0  0  0  0  0
    1.3331   -3.5034   -1.5396 C   0  0  0  0  0  0  0  0  0  0  0  0
    1.7904   -3.5559   -2.9066 N   0  0  0  0  0  0  0  0  0  0  0  0
    0.2194   -3.9632   -1.2348 O   0  0  0  0  0  0  0  0  0  0  0  0
    0.5769   -1.5269    0.5447 C   0  0  0  0  0  0  0  0  0  0  0  0
    0.7887   -1.4108    1.7302 O   0  0  0  0  0  0  0  0  0  0  0  0
   -0.7134   -1.8654    0.0272 N   0  0  0  0  0  0  0  0  0  0  0  0
   -1.7378   -2.0483    1.0776 C   0  0  0  0  0  0  0  0  0  0  0  0
   -1.8972   -0.7705    1.8725 C   0  0  0  0  0  0  0  0  0  0  0  0
   -2.3486    0.3410    0.9765 C   0  0  0  0  0  0  0  0  0  0  0  0
   -1.6217    1.3637    0.4142 C   0  0  0  0  0  0  0  0  0  0  0  0
   -2.5345    2.0689   -0.3125 N   0  0  0  0  0  0  0  0  0  0  0  0
   -3.7459    1.5407   -0.2223 C   0  0  0  0  0  0  0  0  0  0  0  0
   -5.0053    1.8619   -0.7499 C   0  0  0  0  0  0  0  0  0  0  0  0
   -6.1035    1.1021   -0.4587 C   0  0  0  0  0  0  0  0  0  0  0  0
   -6.0341   -0.0050    0.3549 C   0  0  0  0  0  0  0  0  0  0  0  0
   -4.8071   -0.3376    0.8821 C   0  0  0  0  0  0  0  0  0  0  0  0
   -3.6843    0.4298    0.5924 C   0  0  0  0  0  0  0  0  0  0  0  0
  1  2  1  0
  2  3  1  0
  2  4  1  0
  4  5  1  0
  5  6  1  0
  6  7  2  0
  6  8  1  0
  8  9  1  0
  9 10  1  1
 10 11  1  0
 11 12  1  0
 11 13  2  0
  9 14  1  0
 14 15  2  0
 14 16  1  0
 16 17  1  0
 17 18  1  0
 18 19  1  0
 19 20  2  0
 20 21  1  0
 21 22  1  0
 22 23  2  0
 23 24  1  0
 24 25  2  0
 25 26  1  0
 26 27  2  0
 27 19  1  0
 27 22  1  0
M  END

