
     RDKit          3D

 18 17  0  0  0  0  0  0  0  0999 V2000
   -0.0046    4.4120   -0.0739 O   0  0  0  0  0  1  0  0  0  0  0  0
   -0.5216    3.6642    0.9676 C   0  0  0  0  0  0  0  0  0  0  0  0
   -1.1524    4.2835    1.8733 O   0  0  0  0  0  0  0  0  0  0  0  0
   -0.3771    2.2156    1.0732 C   0  0  0  0  0  0  0  0  0  0  0  0
    0.3916    1.5893   -0.0619 C   0  0  0  0  0  0  0  0  0  0  0  0
    0.3625   -0.0102    0.4061 C   0  0  2  0  0  0  0  0  0  0  0  0
    1.1942   -0.4649   -0.8665 N   0  0  0  0  0  0  0  0  0  0  0  0
    2.2606   -1.2942   -0.4640 C   0  0  0  0  0  0  0  0  0  0  0  0
    2.4747   -1.5875    0.7643 O   0  0  0  0  0  0  0  0  0  0  0  0
    3.2278   -1.8974   -1.4418 C   0  0  0  0  0  0  0  0  0  0  0  0
    4.1844   -2.8565   -0.7734 C   0  0  0  0  0  0  0  0  0  0  0  0
    4.9024   -2.1443    0.2035 O   0  0  0  0  0  0  0  0  0  0  0  0
   -1.0730   -0.3086   -0.2236 C   0  0  0  0  0  0  0  0  0  0  0  0
   -1.1888   -0.4415   -1.4383 O   0  0  0  0  0  0  0  0  0  0  0  0
   -2.1680   -0.4161    0.6284 N   0  0  0  0  0  0  0  0  0  0  0  0
   -3.5287   -0.6784    0.3001 C   0  0  0  0  0  0  0  0  0  0  0  0
   -3.7941   -1.9878   -0.4053 C   0  0  0  0  0  0  0  0  0  0  0  0
   -5.1899   -2.0775   -0.6310 O   0  0  0  0  0  0  0  0  0  0  0  0
  1  2  1  0
  2  3  2  0
  2  4  1  0
  4  5  1  0
  6  5  1  6
  6  7  1  0
  7  8  1  0
  8  9  2  0
  8 10  1  0
 10 11  1  0
 11 12  1  0
  6 13  1  0
 13 14  2  0
 13 15  1  0
 15 16  1  0
 16 17  1  0
 17 18  1  0
M  RAD  1   1   2
M  END

