
     RDKit          3D

 34 36  0  0  0  0  0  0  0  0999 V2000
    4.5905    6.3803   -0.5237 N   0  0  0  0  0  0  0  0  0  0  0  0
    3.9860    5.1200   -0.1459 C   0  0  0  0  0  0  0  0  0  0  0  0
    2.7943    4.8300   -0.4962 N   0  0  0  0  0  4  0  0  0  0  0  0
    4.7887    4.2614    0.6160 N   0  0  0  0  0  0  0  0  0  0  0  0
    4.5053    2.9937    1.1286 C   0  0  0  0  0  0  0  0  0  0  0  0
    4.2707    1.9375    0.1292 C   0  0  0  0  0  0  0  0  0  0  0  0
    3.1271    2.1982   -0.7555 C   0  0  0  0  0  0  0  0  0  0  0  0
    2.8834    1.1144   -1.7846 C   0  0  0  0  0  0  0  0  0  0  0  0
    2.6192   -0.1641   -1.1773 N   0  0  0  0  0  0  0  0  0  0  0  0
    1.5738   -0.4692   -0.3110 C   0  0  0  0  0  0  0  0  0  0  0  0
    0.7803    0.4016   -0.0112 O   0  0  0  0  0  0  0  0  0  0  0  0
    1.3340   -1.8567    0.3158 C   0  0  2  0  0  0  0  0  0  0  0  0
    0.6153   -2.5924   -0.9393 C   0  0  0  0  0  0  0  0  0  0  0  0
    0.3761   -3.9422   -0.3930 C   0  0  0  0  0  0  0  0  0  0  0  0
    1.3488   -4.8897   -0.5659 C   0  0  0  0  0  0  0  0  0  0  0  0
    1.1379   -6.1530   -0.0597 C   0  0  0  0  0  0  0  0  0  0  0  0
   -0.0105   -6.4964    0.6109 C   0  0  0  0  0  0  0  0  0  0  0  0
   -0.1859   -7.7810    1.1062 O   0  0  0  0  0  0  0  0  0  0  0  0
   -0.9714   -5.5219    0.7695 C   0  0  0  0  0  0  0  0  0  0  0  0
   -0.7600   -4.2607    0.2638 C   0  0  0  0  0  0  0  0  0  0  0  0
    0.0464   -1.6578    1.1195 N   0  0  0  0  0  0  0  0  0  0  0  0
   -1.1718   -1.3305    0.5185 C   0  0  0  0  0  0  0  0  0  0  0  0
   -1.0787   -1.2285   -0.7260 O   0  0  0  0  0  0  0  0  0  0  0  0
   -2.3984   -1.1379    1.3086 C   0  0  0  0  0  0  0  0  0  0  0  0
   -3.5673   -0.8225    0.4396 C   0  0  0  0  0  0  0  0  0  0  0  0
   -3.3878    0.4107   -0.3631 C   0  0  0  0  0  0  0  0  0  0  0  0
   -3.1041    0.5324   -1.7098 C   0  0  0  0  0  0  0  0  0  0  0  0
   -3.0274    1.8327   -2.0409 N   0  0  0  0  0  0  0  0  0  0  0  0
   -3.2545    2.5894   -0.9416 C   0  0  0  0  0  0  0  0  0  0  0  0
   -3.2939    3.9622   -0.7211 C   0  0  0  0  0  0  0  0  0  0  0  0
   -3.5602    4.3879    0.5546 C   0  0  0  0  0  0  0  0  0  0  0  0
   -3.7830    3.5054    1.5920 C   0  0  0  0  0  0  0  0  0  0  0  0
   -3.7462    2.1413    1.3839 C   0  0  0  0  0  0  0  0  0  0  0  0
   -3.4768    1.7058    0.0932 C   0  0  0  0  0  0  0  0  0  0  0  0
  1  2  1  0
  2  3  2  0
  2  4  1  0
  4  5  1  0
  5  6  1  0
  6  7  1  0
  7  8  1  0
  8  9  1  0
  9 10  1  0
 10 11  2  0
 10 12  1  0
 12 13  1  6
 13 14  1  0
 14 15  2  0
 15 16  1  0
 16 17  2  0
 17 18  1  0
 17 19  1  0
 19 20  2  0
 12 21  1  0
 21 22  1  0
 22 23  2  0
 22 24  1  0
 24 25  1  0
 25 26  1  0
 26 27  2  0
 27 28  1  0
 28 29  1  0
 29 30  2  0
 30 31  1  0
 31 32  2  0
 32 33  1  0
 33 34  2  0
 20 14  1  0
 34 26  1  0
 34 29  1  0
M  CHG  1   3   1
M  END

