
     RDKit          3D

 51 53  0  0  0  0  0  0  0  0999 V2000
    0.1631    0.8982    1.6266 C   0  0  0  0  0  0  0  0  0  0  0  0
   -0.5781    1.7730    0.4810 C   0  0  1  0  0  0  0  0  0  0  0  0
    0.4438    2.8761    0.4584 O   0  0  0  0  0  0  0  0  0  0  0  0
    0.0060    0.9928   -0.9150 C   0  0  2  0  0  0  0  0  0  0  0  0
   -1.0318   -0.1592   -0.8824 N   0  0  0  0  0  0  0  0  0  0  0  0
   -2.3919    0.2288   -0.7468 C   0  0  0  0  0  0  0  0  0  0  0  0
   -2.6932    1.4504   -0.6595 O   0  0  0  0  0  0  0  0  0  0  0  0
   -3.4604   -0.8287   -0.7086 C   0  0  0  0  0  0  0  0  0  0  0  0
   -4.8098   -0.1246   -0.5513 C   0  0  0  0  0  0  0  0  0  0  0  0
   -5.9240   -1.0652   -0.5042 C   0  0  0  0  0  0  0  0  0  0  0  0
   -6.5941   -1.2381    0.7027 O   0  0  0  0  0  1  0  0  0  0  0  0
   -6.2473   -1.6957   -1.5613 O   0  0  0  0  0  0  0  0  0  0  0  0
    1.2234    0.2236   -0.3498 C   0  0  0  0  0  0  0  0  0  0  0  0
    1.2373   -0.9330   -0.0134 O   0  0  0  0  0  0  0  0  0  0  0  0
    2.3687    1.0303   -0.2585 N   0  0  0  0  0  0  0  0  0  0  0  0
    3.5755    0.4849    0.2402 C   0  0  0  0  0  0  0  0  0  0  0  0
    3.4624   -0.0343    1.6526 C   0  0  0  0  0  0  0  0  0  0  0  0
    4.8397   -0.5706    1.9864 C   0  0  0  0  0  0  0  0  0  0  0  0
    5.1215   -1.6650    0.9841 C   0  0  0  0  0  0  0  0  0  0  0  0
    5.1216   -1.1769   -0.4387 C   0  0  0  0  0  0  0  0  0  0  0  0
    6.1677   -0.1700   -0.5424 N   0  0  0  0  0  4  0  0  0  0  0  0
    3.7958   -1.6767    0.0393 C   0  0  0  0  0  0  0  0  0  0  0  0
    4.2073   -0.1205   -0.4160 C   0  0  2  0  0  0  0  0  0  0  0  0
    5.7288   -0.2589    0.2567 C   0  0  0  0  0  0  0  0  0  0  0  0
    6.3184    1.0517   -0.0282 N   0  0  0  0  0  0  0  0  0  0  0  0
    6.2805    2.1403    0.7145 N   0  0  0  0  0  0  0  0  0  0  0  0
    6.9406    3.1402    0.1070 C   0  0  0  0  0  0  0  0  0  0  0  0
    7.3796    2.5972   -1.0433 N   0  0  0  0  0  0  0  0  0  0  0  0
    6.9882    1.3396   -1.0936 N   0  0  0  0  0  0  0  0  0  0  0  0
    3.6135    0.5003    0.9142 N   0  0  0  0  0  0  0  0  0  0  0  0
    2.2134    0.2311    1.0705 C   0  0  0  0  0  0  0  0  0  0  0  0
    1.6734    0.7436    2.1905 N   0  0  0  0  0  0  0  0  0  0  0  0
    0.3683    0.5617    2.4549 C   0  0  0  0  0  0  0  0  0  0  0  0
   -0.3819   -0.1540    1.5561 C   0  0  0  0  0  0  0  0  0  0  0  0
   -1.7211   -0.3777    1.7638 C   0  0  0  0  0  0  0  0  0  0  0  0
   -2.4714   -1.0947    0.8626 C   0  0  0  0  0  0  0  0  0  0  0  0
   -3.8411   -1.2934    1.1267 O   0  0  0  0  0  0  0  0  0  0  0  0
   -4.6927   -0.7644    0.1355 C   0  0  0  0  0  0  0  0  0  0  0  0
   -5.5537   -1.5922   -0.5533 C   0  0  0  0  0  0  0  0  0  0  0  0
   -6.3600   -1.0104   -1.5104 C   0  0  0  0  0  0  0  0  0  0  0  0
   -6.3152    0.3419   -1.7756 C   0  0  0  0  0  0  0  0  0  0  0  0
   -7.1076    0.9073   -2.7147 F   0  0  0  0  0  0  0  0  0  0  0  0
   -5.4470    1.1239   -1.0689 C   0  0  0  0  0  0  0  0  0  0  0  0
   -4.6316    0.5844   -0.1122 C   0  0  0  0  0  0  0  0  0  0  0  0
   -3.7538    1.3457    0.6089 F   0  0  0  0  0  0  0  0  0  0  0  0
   -1.8620   -1.5911   -0.2604 C   0  0  0  0  0  0  0  0  0  0  0  0
   -2.5607   -2.2395   -1.0664 O   0  0  0  0  0  0  0  0  0  0  0  0
   -0.5470   -1.3793   -0.4778 N   0  0  0  0  0  0  0  0  0  0  0  0
    0.0657   -1.9167   -1.6729 C   0  0  0  0  0  0  0  0  0  0  0  0
    0.1888   -0.6791    0.4008 C   0  0  0  0  0  0  0  0  0  0  0  0
    1.4848   -0.4607    0.2032 N   0  0  0  0  0  0  0  0  0  0  0  0
  2  1  1  1
  2  3  1  0
  2  4  1  0
  4  5  1  1
  5  6  1  0
  6  7  2  0
  6  8  1  0
  8  9  1  0
  9 10  1  0
 10 11  1  0
 10 12  2  0
  4 13  1  0
 13 14  2  0
 13 15  1  0
 15 16  1  0
 16 17  1  0
 17 18  1  0
 18 19  1  0
 19 20  1  0
 20 21  1  0
 23 22  1  1
 23 24  1  0
 24 25  1  0
 25 26  1  0
 26 27  2  0
 27 28  1  0
 28 29  2  0
 23 30  1  0
 30 31  1  0
 31 32  2  0
 32 33  1  0
 33 34  2  0
 34 35  1  0
 35 36  2  0
 36 37  1  0
 37 38  1  0
 38 39  2  0
 39 40  1  0
 40 41  2  0
 41 42  1  0
 41 43  1  0
 43 44  2  0
 44 45  1  0
 36 46  1  0
 46 47  2  0
 46 48  1  0
 48 49  1  0
 48 50  1  0
 50 51  2  0
 29 25  1  0
 51 31  1  0
 50 34  1  0
 44 38  1  0
M  CHG  1  21   1
M  RAD  1  11   2
M  END

