
     RDKit          3D

 51 53  0  0  0  0  0  0  0  0999 V2000
   -2.9395   -2.7984    1.1464 C   0  0  0  0  0  0  0  0  0  0  0  0
   -2.7157   -2.4371   -0.4688 C   0  0  1  0  0  0  0  0  0  0  0  0
   -4.1054   -3.0353   -0.8412 O   0  0  0  0  0  0  0  0  0  0  0  0
   -3.3456   -0.8988   -0.3323 C   0  0  0  0  0  0  0  0  0  0  0  0
   -2.2679   -0.0475    0.0264 N   0  0  0  0  0  0  0  0  0  0  0  0
   -1.1509    0.0507   -0.8352 C   0  0  0  0  0  0  0  0  0  0  0  0
   -1.0095   -0.5234   -1.8696 O   0  0  0  0  0  0  0  0  0  0  0  0
   -0.0699    1.0668   -0.2169 C   0  0  2  0  0  0  0  0  0  0  0  0
   -0.7257    2.4460   -0.9349 C   0  0  0  0  0  0  0  0  0  0  0  0
   -2.0958    2.4079   -0.3234 C   0  0  0  0  0  0  0  0  0  0  0  0
   -1.9661    2.4874    1.1619 C   0  0  0  0  0  0  0  0  0  0  0  0
   -1.2799    3.7489    1.6255 C   0  0  0  0  0  0  0  0  0  0  0  0
   -1.1867    3.7587    3.0819 N   0  0  0  0  0  4  0  0  0  0  0  0
    0.9918    0.8771   -1.3715 N   0  0  0  0  0  0  0  0  0  0  0  0
    2.2149    0.3292   -0.9272 C   0  0  0  0  0  0  0  0  0  0  0  0
    2.3137    0.0662    0.3057 O   0  0  0  0  0  0  0  0  0  0  0  0
    3.3640    0.0625   -1.8620 C   0  0  0  0  0  0  0  0  0  0  0  0
    4.5042   -0.6186   -1.1059 C   0  0  0  0  0  0  0  0  0  0  0  0
    3.9385   -1.9040   -0.5883 C   0  0  0  0  0  0  0  0  0  0  0  0
    4.7803   -2.7743    0.1812 N   0  0  0  0  0  0  0  0  0  0  0  0
    2.7511   -2.2639   -0.7954 O   0  0  0  0  0  0  0  0  0  0  0  0
    4.7401   -0.6028   -2.7602 C   0  0  0  0  0  0  0  0  0  0  0  0
    5.3335   -0.3437   -1.2662 C   0  0  2  0  0  0  0  0  0  0  0  0
    4.5140   -1.5701   -0.5851 C   0  0  0  0  0  0  0  0  0  0  0  0
    4.9334   -1.4906    0.7984 N   0  0  0  0  0  0  0  0  0  0  0  0
    5.9954   -2.1421    1.2703 N   0  0  0  0  0  0  0  0  0  0  0  0
    6.0994   -1.8518    2.5755 C   0  0  0  0  0  0  0  0  0  0  0  0
    5.1119   -1.0271    2.9144 N   0  0  0  0  0  0  0  0  0  0  0  0
    4.4111   -0.8214    1.8062 N   0  0  0  0  0  0  0  0  0  0  0  0
    4.3147    0.7561   -0.8944 N   0  0  0  0  0  0  0  0  0  0  0  0
    2.9490    0.5215   -0.9289 C   0  0  0  0  0  0  0  0  0  0  0  0
    2.5214   -0.7103   -1.3037 N   0  0  0  0  0  0  0  0  0  0  0  0
    1.2634   -1.0898   -1.3868 C   0  0  0  0  0  0  0  0  0  0  0  0
    0.3102   -0.1095   -1.0515 C   0  0  0  0  0  0  0  0  0  0  0  0
   -1.0028   -0.4421   -1.1179 C   0  0  0  0  0  0  0  0  0  0  0  0
   -1.9756    0.5475   -0.7789 C   0  0  0  0  0  0  0  0  0  0  0  0
   -3.2210    0.0972   -0.8859 O   0  0  0  0  0  0  0  0  0  0  0  0
   -4.3132   -0.1551   -0.1786 C   0  0  0  0  0  0  0  0  0  0  0  0
   -4.7113   -1.5317   -0.1021 C   0  0  0  0  0  0  0  0  0  0  0  0
   -5.8047   -1.9389    0.5834 C   0  0  0  0  0  0  0  0  0  0  0  0
   -6.6218   -1.0682    1.2609 C   0  0  0  0  0  0  0  0  0  0  0  0
   -7.7165   -1.4820    1.9490 F   0  0  0  0  0  0  0  0  0  0  0  0
   -6.2775    0.2541    1.2120 C   0  0  0  0  0  0  0  0  0  0  0  0
   -5.1421    0.6831    0.5005 C   0  0  0  0  0  0  0  0  0  0  0  0
   -4.9019    2.0155    0.4830 F   0  0  0  0  0  0  0  0  0  0  0  0
   -1.4833    1.7598   -0.4132 C   0  0  0  0  0  0  0  0  0  0  0  0
   -2.2919    2.6766   -0.1059 O   0  0  0  0  0  0  0  0  0  0  0  0
   -0.1560    2.0717   -0.3532 N   0  0  0  0  0  0  0  0  0  0  0  0
    0.2936    3.3787    0.0442 C   0  0  0  0  0  0  0  0  0  0  0  0
    0.7480    1.1420   -0.6708 C   0  0  0  0  0  0  0  0  0  0  0  0
    2.0808    1.4432   -0.6144 N   0  0  0  0  0  0  0  0  0  0  0  0
  2  1  1  1
  2  3  1  0
  2  4  1  0
  4  5  1  0
  5  6  1  0
  6  7  2  0
  6  8  1  0
  8  9  1  6
  9 10  1  0
 10 11  1  0
 11 12  1  0
 12 13  1  0
  8 14  1  0
 14 15  1  0
 15 16  2  0
 15 17  1  0
 17 18  1  0
 18 19  1  0
 19 20  1  0
 19 21  2  0
 23 22  1  6
 23 24  1  0
 24 25  1  0
 25 26  1  0
 26 27  2  0
 27 28  1  0
 28 29  2  0
 23 30  1  0
 30 31  1  0
 31 32  2  0
 32 33  1  0
 33 34  2  0
 34 35  1  0
 35 36  2  0
 36 37  1  0
 37 38  1  0
 38 39  2  0
 39 40  1  0
 40 41  2  0
 41 42  1  0
 41 43  1  0
 43 44  2  0
 44 45  1  0
 36 46  1  0
 46 47  2  0
 46 48  1  0
 48 49  1  0
 48 50  1  0
 50 51  2  0
 29 25  1  0
 51 31  1  0
 50 34  1  0
 44 38  1  0
M  CHG  1  13   1
M  END

