
     RDKit          3D

 48 51  0  0  0  0  0  0  0  0999 V2000
   -5.2447    1.2323    1.8710 C   0  0  0  0  0  0  0  0  0  0  0  0
   -4.0691    0.3765    2.2924 C   0  0  0  0  0  0  0  0  0  0  0  0
   -2.9644    0.5647    1.3351 C   0  0  0  0  0  0  0  0  0  0  0  0
   -3.1381    1.3715    0.3581 O   0  0  0  0  0  0  0  0  0  0  0  0
   -1.7119   -0.0377    1.3506 N   0  0  0  0  0  0  0  0  0  0  0  0
   -0.7827    0.4027    0.1576 C   0  0  1  0  0  0  0  0  0  0  0  0
    0.5498   -0.2946    0.8777 C   0  0  0  0  0  0  0  0  0  0  0  0
    1.6762   -0.0635   -0.0103 C   0  0  0  0  0  0  0  0  0  0  0  0
    2.4331    1.0819    0.1016 C   0  0  0  0  0  0  0  0  0  0  0  0
    3.5254    1.3163   -0.7290 C   0  0  0  0  0  0  0  0  0  0  0  0
    3.8519    0.3887   -1.6763 C   0  0  0  0  0  0  0  0  0  0  0  0
    4.9493    0.6417   -2.4974 O   0  0  0  0  0  0  0  0  0  0  0  0
    3.1175   -0.7658   -1.8157 C   0  0  0  0  0  0  0  0  0  0  0  0
    2.0360   -0.9723   -0.9752 C   0  0  0  0  0  0  0  0  0  0  0  0
   -1.0992   -0.7988   -0.8216 C   0  0  0  0  0  0  0  0  0  0  0  0
   -1.8439   -1.7157   -0.5357 O   0  0  0  0  0  0  0  0  0  0  0  0
   -0.5001   -0.8159   -2.0803 N   0  0  0  0  0  0  0  0  0  0  0  0
   -0.7853   -1.9121   -2.9894 C   0  0  0  0  0  0  0  0  0  0  0  0
    5.9581    1.1775   -2.0451 C   0  0  0  0  0  0  0  0  0  0  0  0
    4.4080    1.4489   -1.5244 C   0  0  2  0  0  0  0  0  0  0  0  0
    4.7910    1.4766    0.0754 C   0  0  0  0  0  0  0  0  0  0  0  0
    5.3682    0.2424    0.4414 N   0  0  0  0  0  0  0  0  0  0  0  0
    6.6959    0.0786    0.3535 N   0  0  0  0  0  0  0  0  0  0  0  0
    7.0526   -1.1577    0.7444 C   0  0  0  0  0  0  0  0  0  0  0  0
    5.9087   -1.7779    1.0848 N   0  0  0  0  0  0  0  0  0  0  0  0
    4.9393   -0.9017    0.8859 N   0  0  0  0  0  0  0  0  0  0  0  0
    4.0259   -0.0836   -1.5274 N   0  0  0  0  0  0  0  0  0  0  0  0
    2.6719   -0.3098   -1.1104 C   0  0  0  0  0  0  0  0  0  0  0  0
    2.2888   -1.5965   -1.0929 N   0  0  0  0  0  0  0  0  0  0  0  0
    1.0706   -1.9985   -0.7340 C   0  0  0  0  0  0  0  0  0  0  0  0
    0.1605   -1.0352   -0.3621 C   0  0  0  0  0  0  0  0  0  0  0  0
   -1.1125   -1.4175    0.0160 C   0  0  0  0  0  0  0  0  0  0  0  0
   -2.0077   -0.4589    0.3827 C   0  0  0  0  0  0  0  0  0  0  0  0
   -3.2898   -0.8314    0.7646 O   0  0  0  0  0  0  0  0  0  0  0  0
   -4.4130   -0.3800    0.0850 C   0  0  0  0  0  0  0  0  0  0  0  0
   -4.3255    0.4604   -1.0040 C   0  0  0  0  0  0  0  0  0  0  0  0
   -5.4576    0.9086   -1.6801 C   0  0  0  0  0  0  0  0  0  0  0  0
   -6.7089    0.5128   -1.2652 C   0  0  0  0  0  0  0  0  0  0  0  0
   -7.8053    0.9486   -1.9222 F   0  0  0  0  0  0  0  0  0  0  0  0
   -6.8005   -0.3218   -0.1843 C   0  0  0  0  0  0  0  0  0  0  0  0
   -5.6753   -0.7587    0.4766 C   0  0  0  0  0  0  0  0  0  0  0  0
   -5.7703   -1.5894    1.5523 F   0  0  0  0  0  0  0  0  0  0  0  0
   -1.5877    0.8612    0.3560 C   0  0  0  0  0  0  0  0  0  0  0  0
   -2.4395    1.7209    0.7007 O   0  0  0  0  0  0  0  0  0  0  0  0
   -0.3469    1.2167   -0.0139 N   0  0  0  0  0  0  0  0  0  0  0  0
    0.0163    2.6204   -0.0154 C   0  0  0  0  0  0  0  0  0  0  0  0
    0.5625    0.2970   -0.3820 C   0  0  0  0  0  0  0  0  0  0  0  0
    1.8221    0.6481   -0.7584 N   0  0  0  0  0  0  0  0  0  0  0  0
  1  2  1  0
  2  3  1  0
  3  4  2  0
  3  5  1  0
  5  6  1  0
  6  7  1  1
  7  8  1  0
  8  9  2  0
  9 10  1  0
 10 11  2  0
 11 12  1  0
 11 13  1  0
 13 14  2  0
  6 15  1  0
 15 16  2  0
 15 17  1  0
 17 18  1  0
 20 19  1  6
 20 21  1  0
 21 22  1  0
 22 23  1  0
 23 24  2  0
 24 25  1  0
 25 26  2  0
 20 27  1  0
 27 28  1  0
 28 29  2  0
 29 30  1  0
 30 31  2  0
 31 32  1  0
 32 33  2  0
 33 34  1  0
 34 35  1  0
 35 36  2  0
 36 37  1  0
 37 38  2  0
 38 39  1  0
 38 40  1  0
 40 41  2  0
 41 42  1  0
 33 43  1  0
 43 44  2  0
 43 45  1  0
 45 46  1  0
 45 47  1  0
 47 48  2  0
 14  8  1  0
 26 22  1  0
 48 28  1  0
 47 31  1  0
 41 35  1  0
M  END

