
     RDKit          3D

 20 20  0  0  0  0  0  0  0  0999 V2000
    7.1648   -0.7298    1.8511 C   0  0  0  0  0  0  0  0  0  0  0  0
    5.8233    0.2865    1.8687 C   0  0  1  0  0  0  0  0  0  0  0  0
    6.3720    1.1183    0.7019 O   0  0  0  0  0  0  0  0  0  0  0  0
    4.9646   -0.7119    0.8519 C   0  0  0  0  0  0  0  0  0  0  0  0
    3.6487    0.0148    0.7008 C   0  0  0  0  0  0  0  0  0  0  0  0
    3.4188    1.1108    1.2786 O   0  0  0  0  0  0  0  0  0  0  0  0
    2.6243   -0.5188   -0.1023 N   0  0  0  0  0  0  0  0  0  0  0  0
    1.3674    0.1857   -0.2402 C   0  0  0  0  0  0  0  0  0  0  0  0
    0.4931   -0.5997   -1.1314 C   0  0  0  0  0  0  0  0  0  0  0  0
    0.8966   -1.6814   -1.6205 O   0  0  0  0  0  0  0  0  0  0  0  0
   -0.8219   -0.1106   -1.4302 N   0  0  0  0  0  0  0  0  0  0  0  0
   -1.6252   -0.9385   -2.3153 C   0  0  0  0  0  0  0  0  0  0  0  0
   -2.9851   -0.3297   -2.5601 C   0  0  0  0  0  0  0  0  0  0  0  0
   -3.6695   -0.2038   -1.2603 C   0  0  0  0  0  0  0  0  0  0  0  0
   -4.4591   -1.2121   -0.7595 C   0  0  0  0  0  0  0  0  0  0  0  0
   -5.0976   -1.0713    0.4733 C   0  0  0  0  0  0  0  0  0  0  0  0
   -4.9171    0.0861    1.1616 C   0  0  0  0  0  0  0  0  0  0  0  0
   -5.5618    0.2058    2.3871 O   0  0  0  0  0  0  0  0  0  0  0  0
   -4.1337    1.1149    0.6894 C   0  0  0  0  0  0  0  0  0  0  0  0
   -3.5029    0.9575   -0.5445 C   0  0  0  0  0  0  0  0  0  0  0  0
  2  1  1  6
  2  3  1  0
  2  4  1  0
  4  5  1  0
  5  6  2  0
  5  7  1  0
  7  8  1  0
  8  9  1  0
  9 10  2  0
  9 11  1  0
 11 12  1  0
 12 13  1  0
 13 14  1  0
 14 15  2  0
 15 16  1  0
 16 17  2  0
 17 18  1  0
 17 19  1  0
 19 20  2  0
 20 14  1  0
M  END

