
     RDKit          3D

 47 50  0  0  0  0  0  0  0  0999 V2000
   -4.3677   -1.1451   -0.1667 C   0  0  0  0  0  0  0  0  0  0  0  0
   -3.4878   -0.3659   -1.1154 C   0  0  0  0  0  0  0  0  0  0  0  0
   -2.1015   -0.1833   -0.5319 C   0  0  0  0  0  0  0  0  0  0  0  0
   -1.8469   -0.6745    0.6119 O   0  0  0  0  0  0  0  0  0  0  0  0
   -1.1617    0.5127   -1.2648 N   0  0  0  0  0  0  0  0  0  0  0  0
    0.2853    0.7333   -0.7157 C   0  0  1  0  0  0  0  0  0  0  0  0
   -0.1683    1.0506    0.8437 C   0  0  0  0  0  0  0  0  0  0  0  0
   -0.9750    2.2649    0.6392 C   0  0  0  0  0  0  0  0  0  0  0  0
   -2.3256    2.3375    1.0185 N   0  0  0  0  0  0  0  0  0  0  0  0
   -0.4525    3.3112    0.0978 O   0  0  0  0  0  0  0  0  0  0  0  0
    0.7282   -0.7626   -0.4808 C   0  0  0  0  0  0  0  0  0  0  0  0
   -0.0279   -1.6925   -0.8002 O   0  0  0  0  0  0  0  0  0  0  0  0
    2.0027   -0.9298    0.0967 N   0  0  0  0  0  0  0  0  0  0  0  0
    2.6389   -2.1856    0.4126 C   0  0  0  0  0  0  0  0  0  0  0  0
    4.1147   -1.9153    0.4943 C   0  0  0  0  0  0  0  0  0  0  0  0
    4.2279   -0.4714    0.0323 C   0  0  0  0  0  0  0  0  0  0  0  0
    2.9172    0.1159    0.4788 C   0  0  0  0  0  0  0  0  0  0  0  0
    6.1558    1.7733   -1.2077 C   0  0  0  0  0  0  0  0  0  0  0  0
    4.7578    2.2565   -0.4691 C   0  0  2  0  0  0  0  0  0  0  0  0
    5.2212    1.7447    1.0236 C   0  0  0  0  0  0  0  0  0  0  0  0
    5.4689    0.3564    0.9739 N   0  0  0  0  0  0  0  0  0  0  0  0
    4.5839   -0.6060    1.1981 N   0  0  0  0  0  0  0  0  0  0  0  0
    5.1984   -1.7851    1.0570 C   0  0  0  0  0  0  0  0  0  0  0  0
    6.4645   -1.5354    0.7450 N   0  0  0  0  0  0  0  0  0  0  0  0
    6.6182   -0.2279    0.6971 N   0  0  0  0  0  0  0  0  0  0  0  0
    3.9838    0.9386   -0.8306 N   0  0  0  0  0  0  0  0  0  0  0  0
    2.6377    0.8915   -0.3685 C   0  0  0  0  0  0  0  0  0  0  0  0
    2.1168    1.9203    0.3190 N   0  0  0  0  0  0  0  0  0  0  0  0
    0.8681    1.9681    0.7921 C   0  0  0  0  0  0  0  0  0  0  0  0
    0.0215    0.8792    0.5681 C   0  0  0  0  0  0  0  0  0  0  0  0
   -1.2712    0.8697    1.0293 C   0  0  0  0  0  0  0  0  0  0  0  0
   -2.0732   -0.2194    0.7890 C   0  0  0  0  0  0  0  0  0  0  0  0
   -3.3504   -0.1883    1.2643 O   0  0  0  0  0  0  0  0  0  0  0  0
   -4.5027   -0.2729    0.5338 C   0  0  0  0  0  0  0  0  0  0  0  0
   -5.3593   -1.3415    0.8246 C   0  0  0  0  0  0  0  0  0  0  0  0
   -6.5410   -1.5023    0.1370 C   0  0  0  0  0  0  0  0  0  0  0  0
   -6.8437   -0.5792   -0.8386 C   0  0  0  0  0  0  0  0  0  0  0  0
   -7.9875   -0.6541   -1.5711 F   0  0  0  0  0  0  0  0  0  0  0  0
   -5.9958    0.4761   -1.1243 C   0  0  0  0  0  0  0  0  0  0  0  0
   -4.8236    0.6344   -0.4412 C   0  0  0  0  0  0  0  0  0  0  0  0
   -4.0087    1.6692   -0.7329 F   0  0  0  0  0  0  0  0  0  0  0  0
   -1.5175   -1.2666    0.0801 C   0  0  0  0  0  0  0  0  0  0  0  0
   -2.2691   -2.2683   -0.1358 O   0  0  0  0  0  0  0  0  0  0  0  0
   -0.2466   -1.2378   -0.3638 N   0  0  0  0  0  0  0  0  0  0  0  0
    0.3011   -2.3539   -1.1034 C   0  0  0  0  0  0  0  0  0  0  0  0
    0.5522   -0.1743   -0.1349 C   0  0  0  0  0  0  0  0  0  0  0  0
    1.8403   -0.1650   -0.5945 N   0  0  0  0  0  0  0  0  0  0  0  0
  1  2  1  0
  2  3  1  0
  3  4  2  0
  3  5  1  0
  5  6  1  0
  6  7  1  1
  7  8  1  0
  8  9  1  0
  8 10  2  0
  6 11  1  0
 11 12  2  0
 11 13  1  0
 13 14  1  0
 14 15  1  0
 15 16  1  0
 16 17  1  0
 19 18  1  6
 19 20  1  0
 20 21  1  0
 21 22  1  0
 22 23  2  0
 23 24  1  0
 24 25  2  0
 19 26  1  0
 26 27  1  0
 27 28  2  0
 28 29  1  0
 29 30  2  0
 30 31  1  0
 31 32  2  0
 32 33  1  0
 33 34  1  0
 34 35  2  0
 35 36  1  0
 36 37  2  0
 37 38  1  0
 37 39  1  0
 39 40  2  0
 40 41  1  0
 32 42  1  0
 42 43  2  0
 42 44  1  0
 44 45  1  0
 44 46  1  0
 46 47  2  0
 17 13  1  0
 25 21  1  0
 47 27  1  0
 46 30  1  0
 40 34  1  0
M  END

