
     RDKit          3D

 21 20  0  0  0  0  0  0  0  0999 V2000
   -4.9678    2.4801    0.3635 C   0  0  0  0  0  0  0  0  0  0  0  0
   -5.2428    0.9703    0.4281 C   0  0  0  0  0  0  0  0  0  0  0  0
   -5.3228    0.5358   -1.0340 C   0  0  0  0  0  0  0  0  0  0  0  0
   -4.0979    0.2717    1.1547 C   0  0  0  0  0  0  0  0  0  0  0  0
   -2.8816    0.5467    0.3730 N   0  0  0  0  0  0  0  0  0  0  0  0
   -1.7003   -0.0109    0.9151 C   0  0  0  0  0  0  0  0  0  0  0  0
   -1.6741   -0.6544    1.9298 O   0  0  0  0  0  0  0  0  0  0  0  0
   -0.4132    0.3134    0.0358 C   0  0  2  0  0  0  0  0  0  0  0  0
   -0.3933   -1.0676   -0.8608 C   0  0  0  0  0  0  0  0  0  0  0  0
   -1.6000   -1.1832   -1.6244 C   0  0  0  0  0  0  0  0  0  0  0  0
   -1.6674   -0.8697   -3.0139 N   0  0  0  0  0  0  0  0  0  0  0  0
   -2.6727   -1.5718   -1.1076 O   0  0  0  0  0  0  0  0  0  0  0  0
    0.6432   -0.2777    1.0707 N   0  0  0  0  0  0  0  0  0  0  0  0
    1.9203   -0.5616    0.5105 C   0  0  0  0  0  0  0  0  0  0  0  0
    2.0744   -0.3263   -0.7129 O   0  0  0  0  0  0  0  0  0  0  0  0
    3.0500   -1.1102    1.2977 C   0  0  0  0  0  0  0  0  0  0  0  0
    4.2190   -1.3365    0.3905 C   0  0  0  0  0  0  0  0  0  0  0  0
    4.7237   -0.1208   -0.3137 C   0  0  0  0  0  0  0  0  0  0  0  0
    5.1815    0.9650    0.5553 C   0  0  0  0  0  0  0  0  0  0  0  0
    5.7016    2.1257    0.0097 O   0  0  0  0  0  1  0  0  0  0  0  0
    5.1202    0.8821    1.7970 O   0  0  0  0  0  0  0  0  0  0  0  0
  1  2  1  0
  2  3  1  0
  2  4  1  0
  4  5  1  0
  5  6  1  0
  6  7  2  0
  6  8  1  0
  8  9  1  6
  9 10  1  0
 10 11  1  0
 10 12  2  0
  8 13  1  0
 13 14  1  0
 14 15  2  0
 14 16  1  0
 16 17  1  0
 17 18  1  0
 18 19  1  0
 19 20  1  0
 19 21  2  0
M  RAD  1  20   2
M  END

