
     RDKit          3D

 23 23  0  0  0  0  0  0  0  0999 V2000
    3.2568    4.0905    0.1553 C   0  0  0  0  0  0  0  0  0  0  0  0
    3.1590    2.2708   -0.1147 S   0  0  0  0  0  0  0  0  0  0  0  0
    4.7873    1.6728   -0.5422 C   0  0  0  0  0  0  0  0  0  0  0  0
    4.8694    0.2481   -0.8502 C   0  0  0  0  0  0  0  0  0  0  0  0
    4.4857   -0.6434    0.2610 C   0  0  0  0  0  0  0  0  0  0  0  0
    3.1689   -0.5436    0.7950 N   0  0  0  0  0  0  0  0  0  0  0  0
    2.0566   -0.7389   -0.0555 C   0  0  0  0  0  0  0  0  0  0  0  0
    2.1344   -0.9849   -1.2717 O   0  0  0  0  0  0  0  0  0  0  0  0
    0.6099   -0.6322    0.6352 C   0  0  2  0  0  0  0  0  0  0  0  0
    0.2096   -2.2235    0.2618 C   0  0  0  0  0  0  0  0  0  0  0  0
    1.2600   -3.0222    0.9450 C   0  0  0  0  0  0  0  0  0  0  0  0
    1.0829   -4.4848    0.7173 C   0  0  0  0  0  0  0  0  0  0  0  0
    1.4985   -2.6293    2.3825 C   0  0  0  0  0  0  0  0  0  0  0  0
   -0.1312   -0.0886   -0.6554 N   0  0  0  0  0  0  0  0  0  0  0  0
   -1.5442   -0.1447   -0.5805 C   0  0  0  0  0  0  0  0  0  0  0  0
   -2.0552   -0.6178    0.4670 O   0  0  0  0  0  0  0  0  0  0  0  0
   -2.3008    0.3607   -1.7356 C   0  0  0  0  0  0  0  0  0  0  0  0
   -3.7661    0.2267   -1.5733 C   0  0  0  0  0  0  0  0  0  0  0  0
   -4.2066    0.9927   -0.3688 C   0  0  0  0  0  0  0  0  0  0  0  0
   -4.5558    2.3095   -0.3430 C   0  0  0  0  0  0  0  0  0  0  0  0
   -4.9021    2.5883    0.9320 N   0  0  0  0  0  0  0  0  0  0  0  0
   -4.7726    1.4900    1.6657 C   0  0  0  0  0  0  0  0  0  0  0  0
   -4.3445    0.5037    0.8665 N   0  0  0  0  0  0  0  0  0  0  0  0
  1  2  1  0
  2  3  1  0
  3  4  1  0
  4  5  1  0
  5  6  1  0
  6  7  1  0
  7  8  2  0
  7  9  1  0
  9 10  1  6
 10 11  1  0
 11 12  1  0
 11 13  1  0
  9 14  1  0
 14 15  1  0
 15 16  2  0
 15 17  1  0
 17 18  1  0
 18 19  1  0
 19 20  2  0
 20 21  1  0
 21 22  1  0
 22 23  2  0
 23 19  1  0
M  END

