
     RDKit          3D

 20 20  0  0  0  0  0  0  0  0999 V2000
   -5.0927    1.6803   -2.5653 C   0  0  0  0  0  0  0  0  0  0  0  0
   -5.5621    0.7538   -1.4548 C   0  0  0  0  0  0  0  0  0  0  0  0
   -6.8721    0.0677   -1.8224 C   0  0  0  0  0  0  0  0  0  0  0  0
   -4.5002   -0.2661   -1.1007 C   0  0  0  0  0  0  0  0  0  0  0  0
   -3.2824    0.5098   -0.6437 C   0  0  0  0  0  0  0  0  0  0  0  0
   -2.2794   -0.4763   -0.3097 N   0  0  0  0  0  0  0  0  0  0  0  0
   -1.0019   -0.2246    0.1552 C   0  0  0  0  0  0  0  0  0  0  0  0
   -0.6250    0.9335    0.3207 O   0  0  0  0  0  0  0  0  0  0  0  0
    0.0029   -1.3549    0.4860 C   0  0  2  0  0  0  0  0  0  0  0  0
   -0.5763   -1.7670    1.9450 C   0  0  0  0  0  0  0  0  0  0  0  0
   -0.5186   -0.4752    2.6861 C   0  0  0  0  0  0  0  0  0  0  0  0
    0.5848    0.3092    2.0725 C   0  0  0  0  0  0  0  0  0  0  0  0
    1.1423   -0.5234    1.0505 N   0  0  0  0  0  0  0  0  0  0  0  0
    2.4763   -0.5504    0.6634 C   0  0  0  0  0  0  0  0  0  0  0  0
    2.8509   -1.3158   -0.2390 O   0  0  0  0  0  0  0  0  0  0  0  0
    3.4450    0.3284    1.3234 C   0  0  0  0  0  0  0  0  0  0  0  0
    4.8383    0.1740    0.7668 C   0  0  0  0  0  0  0  0  0  0  0  0
    4.9146    0.4930   -0.6831 C   0  0  0  0  0  0  0  0  0  0  0  0
    6.1690    0.3789   -1.3487 N   0  0  0  0  0  0  0  0  0  0  0  0
    3.8866    0.8558   -1.3023 O   0  0  0  0  0  0  0  0  0  0  0  0
  1  2  1  0
  2  3  1  0
  2  4  1  0
  4  5  1  0
  5  6  1  0
  6  7  1  0
  7  8  2  0
  9  7  1  6
  9 10  1  0
 10 11  1  0
 11 12  1  0
 12 13  1  0
 13 14  1  0
 14 15  2  0
 14 16  1  0
 16 17  1  0
 17 18  1  0
 18 19  1  0
 18 20  2  0
 13  9  1  0
M  END

