
     RDKit          3D

 27 27  0  0  0  0  0  0  0  0999 V2000
   -3.0640    2.9095    2.7270 C   0  0  0  0  0  0  0  0  0  0  0  0
   -2.4435    3.7854    1.4974 C   0  0  1  0  0  0  0  0  0  0  0  0
   -1.0201    3.5742    1.8925 O   0  0  0  0  0  0  0  0  0  0  0  0
   -2.5319    2.5775    0.4270 C   0  0  0  0  0  0  0  0  0  0  0  0
   -1.7565    1.4194    0.8562 C   0  0  0  0  0  0  0  0  0  0  0  0
   -1.2172    1.5115    1.9930 O   0  0  0  0  0  0  0  0  0  0  0  0
   -1.5259    0.2305    0.2051 N   0  0  0  0  0  0  0  0  0  0  0  0
   -0.6523   -0.7923    0.9671 C   0  0  1  0  0  0  0  0  0  0  0  0
   -0.7557   -1.9161   -0.2177 C   0  0  0  0  0  0  0  0  0  0  0  0
   -2.1749   -2.2310   -0.3917 C   0  0  0  0  0  0  0  0  0  0  0  0
   -2.8654   -1.4684   -1.3175 C   0  0  0  0  0  0  0  0  0  0  0  0
   -4.1867   -1.6694   -1.5771 C   0  0  0  0  0  0  0  0  0  0  0  0
   -4.8572   -2.6601   -0.8991 C   0  0  0  0  0  0  0  0  0  0  0  0
   -6.2105   -2.8261   -1.2038 O   0  0  0  0  0  0  0  0  0  0  0  0
   -4.1841   -3.4157    0.0148 C   0  0  0  0  0  0  0  0  0  0  0  0
   -2.8597   -3.2144    0.2744 C   0  0  0  0  0  0  0  0  0  0  0  0
    0.7515   -0.2604    0.6155 C   0  0  0  0  0  0  0  0  0  0  0  0
    0.8414    0.9101    0.3365 O   0  0  0  0  0  0  0  0  0  0  0  0
    1.9275   -1.0140    0.5900 N   0  0  0  0  0  0  0  0  0  0  0  0
    3.2156   -0.3858    0.2423 C   0  0  0  0  0  0  0  0  0  0  0  0
    3.0106    0.2005   -1.1047 C   0  0  0  0  0  0  0  0  0  0  0  0
    4.0998    0.9213   -1.7745 C   0  0  0  0  0  0  0  0  0  0  0  0
    4.4717    2.0687   -0.8089 C   0  0  0  0  0  0  0  0  0  0  0  0
    4.9006    1.3086    0.3920 N   0  0  0  0  0  0  0  0  0  0  0  0
    6.0155    0.4343    0.1059 C   0  0  0  0  0  0  0  0  0  0  0  0
    6.5306   -0.3472    1.1747 N   0  0  0  0  0  0  0  0  0  0  0  0
    6.5410    0.3494   -1.0508 N   0  0  0  0  0  4  0  0  0  0  0  0
  2  1  1  1
  2  3  1  0
  2  4  1  0
  4  5  1  0
  5  6  2  0
  5  7  1  0
  7  8  1  0
  8  9  1  6
  9 10  1  0
 10 11  2  0
 11 12  1  0
 12 13  2  0
 13 14  1  0
 13 15  1  0
 15 16  2  0
  8 17  1  0
 17 18  2  0
 17 19  1  0
 19 20  1  0
 20 21  1  0
 21 22  1  0
 22 23  1  0
 23 24  1  0
 24 25  1  0
 25 26  1  0
 25 27  2  0
 16 10  1  0
M  CHG  1  27   1
M  END

