
     RDKit          3D

 52 56  0  0  0  0  0  0  0  0999 V2000
   -2.0049   -2.0745    1.0953 C   0  0  0  0  0  0  0  0  0  0  0  0
   -1.9817   -1.7245   -0.2768 C   0  0  0  0  0  0  0  0  0  0  0  0
   -1.2052   -2.4544   -1.2617 C   0  0  0  0  0  0  0  0  0  0  0  0
   -1.9154   -0.1269   -0.5617 C   0  0  2  0  0  0  0  0  0  0  0  0
   -0.5676    0.1128    0.1819 N   0  0  0  0  0  0  0  0  0  0  0  0
    0.6120   -0.0124   -0.5921 C   0  0  0  0  0  0  0  0  0  0  0  0
    0.4843   -0.3014   -1.7943 O   0  0  0  0  0  0  0  0  0  0  0  0
    1.9775    0.1870   -0.0236 C   0  0  0  0  0  0  0  0  0  0  0  0
    3.0074   -0.0120   -1.0802 C   0  0  0  0  0  0  0  0  0  0  0  0
    4.3481    0.1909   -0.4922 C   0  0  0  0  0  0  0  0  0  0  0  0
    5.0579   -0.8538    0.0642 C   0  0  0  0  0  0  0  0  0  0  0  0
    6.2973   -0.7012    0.6151 C   0  0  0  0  0  0  0  0  0  0  0  0
    6.8372    0.5856    0.5955 C   0  0  0  0  0  0  0  0  0  0  0  0
    6.1325    1.6239    0.0428 C   0  0  0  0  0  0  0  0  0  0  0  0
    4.8836    1.4616   -0.5106 C   0  0  0  0  0  0  0  0  0  0  0  0
   -2.8638    0.3271    0.6249 C   0  0  0  0  0  0  0  0  0  0  0  0
   -2.4443    0.7088    1.6995 O   0  0  0  0  0  0  0  0  0  0  0  0
   -4.2467    0.2570    0.3452 N   0  0  0  0  0  0  0  0  0  0  0  0
   -4.9471   -0.1610   -0.8471 C   0  0  0  0  0  0  0  0  0  0  0  0
   -5.9028    1.0048   -1.0412 C   0  0  0  0  0  0  0  0  0  0  0  0
   -6.2689    1.3440    0.3904 C   0  0  0  0  0  0  0  0  0  0  0  0
   -5.2894    0.6185    1.2720 C   0  0  0  0  0  0  0  0  0  0  0  0
   -4.0466   -0.4303    0.2709 C   0  0  0  0  0  0  0  0  0  0  0  0
   -4.4079    0.6306   -0.9568 C   0  0  1  0  0  0  0  0  0  0  0  0
   -5.9840    0.8983   -0.5208 C   0  0  0  0  0  0  0  0  0  0  0  0
   -6.6665   -0.3397   -0.5549 N   0  0  0  0  0  0  0  0  0  0  0  0
   -7.3293   -0.9531   -1.5326 N   0  0  0  0  0  0  0  0  0  0  0  0
   -7.8149   -2.1194   -1.0991 C   0  0  0  0  0  0  0  0  0  0  0  0
   -7.4518   -2.2461    0.1786 N   0  0  0  0  0  0  0  0  0  0  0  0
   -6.7602   -1.1586    0.4810 N   0  0  0  0  0  0  0  0  0  0  0  0
   -3.8765    1.8882   -0.1652 N   0  0  0  0  0  0  0  0  0  0  0  0
   -2.4877    1.7210    0.1314 C   0  0  0  0  0  0  0  0  0  0  0  0
   -1.8112    2.6838    0.8117 N   0  0  0  0  0  0  0  0  0  0  0  0
   -0.5192    2.6115    1.1302 C   0  0  0  0  0  0  0  0  0  0  0  0
    0.1921    1.4724    0.7416 C   0  0  0  0  0  0  0  0  0  0  0  0
    1.5002    1.3542    1.0407 C   0  0  0  0  0  0  0  0  0  0  0  0
    2.2365    0.1871    0.6444 C   0  0  0  0  0  0  0  0  0  0  0  0
    3.4894    0.1803    0.9872 O   0  0  0  0  0  0  0  0  0  0  0  0
    4.7707    0.1686    0.5838 C   0  0  0  0  0  0  0  0  0  0  0  0
    5.5594    1.3244    0.9154 C   0  0  0  0  0  0  0  0  0  0  0  0
    6.8628    1.4221    0.5593 C   0  0  0  0  0  0  0  0  0  0  0  0
    7.5419    0.4487   -0.1371 C   0  0  0  0  0  0  0  0  0  0  0  0
    8.8459    0.5966   -0.4722 F   0  0  0  0  0  0  0  0  0  0  0  0
    6.8160   -0.6646   -0.4657 C   0  0  0  0  0  0  0  0  0  0  0  0
    5.4612   -0.7828   -0.1032 C   0  0  0  0  0  0  0  0  0  0  0  0
    4.8192   -1.9414   -0.4458 F   0  0  0  0  0  0  0  0  0  0  0  0
    1.5328   -0.7608   -0.0346 C   0  0  0  0  0  0  0  0  0  0  0  0
    2.0669   -1.8234   -0.4292 O   0  0  0  0  0  0  0  0  0  0  0  0
    0.1944   -0.6141   -0.3280 N   0  0  0  0  0  0  0  0  0  0  0  0
   -0.4875   -1.6700   -1.0572 C   0  0  0  0  0  0  0  0  0  0  0  0
   -0.4656    0.4826    0.0527 C   0  0  0  0  0  0  0  0  0  0  0  0
   -1.7806    0.6444   -0.2264 N   0  0  0  0  0  0  0  0  0  0  0  0
  1  2  1  0
  2  3  1  0
  2  4  1  0
  4  5  1  1
  5  6  1  0
  6  7  2  0
  6  8  1  0
  8  9  1  0
  9 10  1  0
 10 11  2  0
 11 12  1  0
 12 13  2  0
 13 14  1  0
 14 15  2  0
  4 16  1  0
 16 17  2  0
 16 18  1  0
 18 19  1  0
 19 20  1  0
 20 21  1  0
 21 22  1  0
 24 23  1  6
 24 25  1  0
 25 26  1  0
 26 27  1  0
 27 28  2  0
 28 29  1  0
 29 30  2  0
 24 31  1  0
 31 32  1  0
 32 33  2  0
 33 34  1  0
 34 35  2  0
 35 36  1  0
 36 37  2  0
 37 38  1  0
 38 39  1  0
 39 40  2  0
 40 41  1  0
 41 42  2  0
 42 43  1  0
 42 44  1  0
 44 45  2  0
 45 46  1  0
 37 47  1  0
 47 48  2  0
 47 49  1  0
 49 50  1  0
 49 51  1  0
 51 52  2  0
 15 10  1  0
 22 18  1  0
 30 26  1  0
 52 32  1  0
 51 35  1  0
 45 39  1  0
M  END

