
     RDKit          3D

 17 17  0  0  0  0  0  0  0  0999 V2000
   -4.3608   -1.3953   -2.2802 C   0  0  0  0  0  0  0  0  0  0  0  0
   -2.8980   -1.0145   -2.0726 C   0  0  0  0  0  0  0  0  0  0  0  0
   -2.7193   -0.5123   -0.7168 N   0  0  0  0  0  0  0  0  0  0  0  0
   -1.3806   -0.1095   -0.3676 C   0  0  0  0  0  0  0  0  0  0  0  0
   -0.4254   -0.1591   -1.1003 O   0  0  0  0  0  0  0  0  0  0  0  0
   -1.2627    0.4380    1.1475 C   0  0  1  0  0  0  0  0  0  0  0  0
    0.2813    0.7543    1.1048 N   0  0  0  0  0  0  0  0  0  0  0  0
    1.1522   -0.3331    0.9448 C   0  0  0  0  0  0  0  0  0  0  0  0
    0.7748   -1.4918    0.8346 O   0  0  0  0  0  0  0  0  0  0  0  0
    2.7156   -0.0359    0.9065 C   0  0  2  0  0  0  0  0  0  0  0  0
    2.7545    0.2620   -0.7284 C   0  0  0  0  0  0  0  0  0  0  0  0
    4.0708   -0.3555   -1.0681 C   0  0  0  0  0  0  0  0  0  0  0  0
    4.4438   -1.2262    0.1290 C   0  0  0  0  0  0  0  0  0  0  0  0
    3.1789   -1.5338    0.7188 N   0  0  0  0  0  0  0  0  0  0  0  0
   -1.6601    2.0250    0.7274 C   0  0  0  0  0  0  0  0  0  0  0  0
   -3.0345    1.9103    0.1280 C   0  0  0  0  0  0  0  0  0  0  0  0
   -1.6304    2.7773    2.0202 C   0  0  0  0  0  0  0  0  0  0  0  0
  1  2  1  0
  2  3  1  0
  3  4  1  0
  4  5  2  0
  4  6  1  0
  6  7  1  6
  7  8  1  0
  8  9  2  0
 10  8  1  6
 10 11  1  0
 11 12  1  0
 12 13  1  0
 13 14  1  0
  6 15  1  0
 15 16  1  0
 15 17  1  0
 14 10  1  0
M  END

