
     RDKit          3D

 20 20  0  0  0  0  0  0  0  0999 V2000
   -0.7120    3.5824    0.2212 C   0  0  0  0  0  0  0  0  0  0  0  0
   -0.2857    2.2211    0.6353 C   0  0  0  0  0  0  0  0  0  0  0  0
   -0.0872    2.0701    1.8847 O   0  0  0  0  0  0  0  0  0  0  0  0
   -0.0980    1.1398   -0.2386 N   0  0  0  0  0  0  0  0  0  0  0  0
    0.3520   -0.1764    0.4871 C   0  0  1  0  0  0  0  0  0  0  0  0
   -0.1789   -1.1882   -0.6990 C   0  0  0  0  0  0  0  0  0  0  0  0
   -1.6404   -0.9303   -0.8142 C   0  0  0  0  0  0  0  0  0  0  0  0
   -2.1958   -0.0569   -1.7271 C   0  0  0  0  0  0  0  0  0  0  0  0
   -3.5843    0.1509   -1.7541 C   0  0  0  0  0  0  0  0  0  0  0  0
   -4.4342   -0.4900   -0.8960 C   0  0  0  0  0  0  0  0  0  0  0  0
   -5.8221   -0.2832   -0.9203 O   0  0  0  0  0  0  0  0  0  0  0  0
   -3.8776   -1.3621    0.0142 C   0  0  0  0  0  0  0  0  0  0  0  0
   -2.4899   -1.5721    0.0444 C   0  0  0  0  0  0  0  0  0  0  0  0
    1.8649   -0.1542   -0.0407 C   0  0  0  0  0  0  0  0  0  0  0  0
    2.2909    0.8370   -0.6029 O   0  0  0  0  0  0  0  0  0  0  0  0
    2.5570   -1.3486    0.2198 N   0  0  0  0  0  0  0  0  0  0  0  0
    3.9032   -1.5752   -0.1315 C   0  0  0  0  0  0  0  0  0  0  0  0
    4.8636   -0.7078    0.5753 C   0  0  0  0  0  0  0  0  0  0  0  0
    4.7819   -0.8994    2.0785 C   0  0  0  0  0  0  0  0  0  0  0  0
    4.7928    0.7430    0.2678 C   0  0  0  0  0  0  0  0  0  0  0  0
  1  2  1  0
  2  3  2  0
  2  4  1  0
  4  5  1  0
  5  6  1  6
  6  7  1  0
  7  8  2  0
  8  9  1  0
  9 10  2  0
 10 11  1  0
 10 12  1  0
 12 13  2  0
  5 14  1  0
 14 15  2  0
 14 16  1  0
 16 17  1  0
 17 18  1  0
 18 19  1  0
 18 20  1  0
 13  7  1  0
M  END

