
     RDKit          3D

 14 13  0  0  0  0  0  0  0  0999 V2000
   -3.0501    2.1164    1.5639 C   0  0  0  0  0  0  0  0  0  0  0  0
   -2.8620    0.7292    0.9410 C   0  0  0  0  0  0  0  0  0  0  0  0
   -3.3437   -0.2496    1.5280 O   0  0  0  0  0  0  0  0  0  0  0  0
   -2.1999    0.5383   -0.2240 N   0  0  0  0  0  0  0  0  0  0  0  0
   -2.0444   -0.8200   -0.9111 C   0  0  1  0  0  0  0  0  0  0  0  0
   -1.9960   -0.2266   -2.4354 C   0  0  0  0  0  0  0  0  0  0  0  0
   -0.4551   -0.9541   -0.7129 C   0  0  0  0  0  0  0  0  0  0  0  0
   -0.1387   -1.8140    0.1331 O   0  0  0  0  0  0  0  0  0  0  0  0
    0.3989   -0.1570   -1.4024 N   0  0  0  0  0  0  0  0  0  0  0  0
    1.8406   -0.2205   -1.0608 C   0  0  0  0  0  0  0  0  0  0  0  0
    2.0204    0.2783    0.3703 C   0  0  0  0  0  0  0  0  0  0  0  0
    3.4925    0.2724    0.6500 C   0  0  0  0  0  0  0  0  0  0  0  0
    4.3646   -0.6504    0.1624 O   0  0  0  0  0  1  0  0  0  0  0  0
    3.9731    1.2048    1.3980 O   0  0  0  0  0  0  0  0  0  0  0  0
  1  2  1  0
  2  3  2  0
  2  4  1  0
  4  5  1  0
  5  6  1  6
  5  7  1  0
  7  8  2  0
  7  9  1  0
  9 10  1  0
 10 11  1  0
 11 12  1  0
 12 13  1  0
 12 14  2  0
M  RAD  1  13   2
M  END

