
     RDKit          3D

 17 16  0  0  0  0  0  0  0  0999 V2000
   -3.3905   -3.8181    0.1516 C   0  0  0  0  0  0  0  0  0  0  0  0
   -3.5873   -2.3315   -0.2118 C   0  0  0  0  0  0  0  0  0  0  0  0
   -2.7078   -1.6481    0.7862 N   0  0  0  0  0  0  0  0  0  0  0  0
   -2.6181   -0.2529    0.7725 C   0  0  0  0  0  0  0  0  0  0  0  0
   -3.3079    0.3538   -0.0963 O   0  0  0  0  0  0  0  0  0  0  0  0
   -1.7081    0.5596    1.7318 C   0  0  2  0  0  0  0  0  0  0  0  0
   -1.7061    1.9612    0.7480 C   0  0  0  0  0  0  0  0  0  0  0  0
   -3.0077    2.4547    0.8689 O   0  0  0  0  0  0  0  0  0  0  0  0
   -0.3116    0.1768    1.4090 N   0  0  0  0  0  0  0  0  0  0  0  0
    0.3564    0.4215    0.1849 C   0  0  0  0  0  0  0  0  0  0  0  0
   -0.2604    1.0222   -0.7314 O   0  0  0  0  0  0  0  0  0  0  0  0
    1.7694   -0.0574    0.0710 C   0  0  0  0  0  0  0  0  0  0  0  0
    2.3957   -0.1017   -1.2499 C   0  0  0  0  0  0  0  0  0  0  0  0
    3.8529   -0.6559   -1.0627 C   0  0  0  0  0  0  0  0  0  0  0  0
    4.5336    0.3632   -0.1852 C   0  0  0  0  0  0  0  0  0  0  0  0
    5.7540    0.0464    0.3737 O   0  0  0  0  0  1  0  0  0  0  0  0
    3.9433    1.5064    0.0178 O   0  0  0  0  0  0  0  0  0  0  0  0
  1  2  1  0
  2  3  1  0
  3  4  1  0
  4  5  2  0
  4  6  1  0
  6  7  1  6
  7  8  1  0
  6  9  1  0
  9 10  1  0
 10 11  2  0
 10 12  1  0
 12 13  1  0
 13 14  1  0
 14 15  1  0
 15 16  1  0
 15 17  2  0
M  RAD  1  16   2
M  END

