
     RDKit          3D

 49 51  0  0  0  0  0  0  0  0999 V2000
   -2.1610   -0.5911   -3.3365 C   0  0  0  0  0  0  0  0  0  0  0  0
   -1.9559   -0.1977   -1.9267 C   0  0  0  0  0  0  0  0  0  0  0  0
   -0.3790   -0.0083   -1.6387 C   0  0  2  0  0  0  0  0  0  0  0  0
    0.0452   -1.5215   -2.0121 C   0  0  0  0  0  0  0  0  0  0  0  0
   -0.5682   -0.3998    0.0350 C   0  0  2  0  0  0  0  0  0  0  0  0
   -1.5291    0.7927    0.2850 N   0  0  0  0  0  0  0  0  0  0  0  0
   -2.9057    0.4735    0.4419 C   0  0  0  0  0  0  0  0  0  0  0  0
   -3.3502   -0.7269    0.3870 O   0  0  0  0  0  0  0  0  0  0  0  0
   -3.9051    1.5589    0.6804 C   0  0  0  0  0  0  0  0  0  0  0  0
   -5.3086    0.9972    0.6968 C   0  0  0  0  0  0  0  0  0  0  0  0
   -5.7402    0.1924   -0.8697 S   0  0  0  0  0  0  0  0  0  0  0  0
    0.7579    0.3142    0.4566 C   0  0  0  0  0  0  0  0  0  0  0  0
    0.6737    1.4773    0.8228 O   0  0  0  0  0  0  0  0  0  0  0  0
    1.9739   -0.3692    0.4096 N   0  0  0  0  0  0  0  0  0  0  0  0
    3.2570    0.2241    0.7785 C   0  0  0  0  0  0  0  0  0  0  0  0
    4.2852   -0.8642    0.5778 C   0  0  0  0  0  0  0  0  0  0  0  0
    5.6357   -0.3287    0.9137 C   0  0  0  0  0  0  0  0  0  0  0  0
    5.6695    0.2105    2.6169 S   0  0  0  0  0  0  0  0  0  0  0  0
    5.5049   -1.2334    3.7085 C   0  0  0  0  0  0  0  0  0  0  0  0
    5.4416   -0.9081    2.5479 C   0  0  0  0  0  0  0  0  0  0  0  0
    3.9368   -1.1642    1.8989 C   0  0  2  0  0  0  0  0  0  0  0  0
    4.5486   -1.7126    0.4654 C   0  0  0  0  0  0  0  0  0  0  0  0
    5.3338   -0.7128   -0.1249 N   0  0  0  0  0  0  0  0  0  0  0  0
    4.8189    0.1972   -0.9705 N   0  0  0  0  0  0  0  0  0  0  0  0
    5.7564    1.0321   -1.3928 C   0  0  0  0  0  0  0  0  0  0  0  0
    6.8984    0.6493   -0.8052 N   0  0  0  0  0  0  0  0  0  0  0  0
    6.6118   -0.3904   -0.0584 N   0  0  0  0  0  0  0  0  0  0  0  0
    3.7688    0.3437    1.4426 N   0  0  0  0  0  0  0  0  0  0  0  0
    2.5173    0.5747    0.7919 C   0  0  0  0  0  0  0  0  0  0  0  0
    2.2563    1.8125    0.3591 N   0  0  0  0  0  0  0  0  0  0  0  0
    1.1173    2.1470   -0.2642 C   0  0  0  0  0  0  0  0  0  0  0  0
    0.1784    1.1417   -0.4580 C   0  0  0  0  0  0  0  0  0  0  0  0
   -1.0254    1.3731   -1.0862 C   0  0  0  0  0  0  0  0  0  0  0  0
   -1.9031    0.3140   -1.2376 C   0  0  0  0  0  0  0  0  0  0  0  0
   -3.1051    0.5502   -1.8661 O   0  0  0  0  0  0  0  0  0  0  0  0
   -4.2905    0.3191   -1.1868 C   0  0  0  0  0  0  0  0  0  0  0  0
   -5.1878   -0.5994   -1.6918 C   0  0  0  0  0  0  0  0  0  0  0  0
   -6.3810   -0.8542   -1.0382 C   0  0  0  0  0  0  0  0  0  0  0  0
   -6.7138   -0.2040    0.1328 C   0  0  0  0  0  0  0  0  0  0  0  0
   -7.8969   -0.4615    0.7740 F   0  0  0  0  0  0  0  0  0  0  0  0
   -5.8034    0.7108    0.6216 C   0  0  0  0  0  0  0  0  0  0  0  0
   -4.6072    0.9813   -0.0129 C   0  0  0  0  0  0  0  0  0  0  0  0
   -3.7312    1.8833    0.4875 F   0  0  0  0  0  0  0  0  0  0  0  0
   -1.6249   -0.9568   -0.7883 C   0  0  0  0  0  0  0  0  0  0  0  0
   -2.4083   -1.9299   -0.9164 O   0  0  0  0  0  0  0  0  0  0  0  0
   -0.4444   -1.1551   -0.1794 N   0  0  0  0  0  0  0  0  0  0  0  0
   -0.0974   -2.4820    0.3165 C   0  0  0  0  0  0  0  0  0  0  0  0
    0.4380   -0.1347   -0.0161 C   0  0  0  0  0  0  0  0  0  0  0  0
    1.5979   -0.3643    0.5908 N   0  0  0  0  0  0  0  0  0  0  0  0
  1  2  1  0
  2  3  1  0
  3  4  1  6
  3  5  1  0
  5  6  1  1
  6  7  1  0
  7  8  2  0
  7  9  1  0
  9 10  1  0
 10 11  1  0
  5 12  1  0
 12 13  2  0
 12 14  1  0
 14 15  1  0
 15 16  1  0
 16 17  1  0
 17 18  1  0
 18 19  1  0
 21 20  1  1
 21 22  1  0
 22 23  1  0
 23 24  1  0
 24 25  2  0
 25 26  1  0
 26 27  2  0
 21 28  1  0
 28 29  1  0
 29 30  2  0
 30 31  1  0
 31 32  2  0
 32 33  1  0
 33 34  2  0
 34 35  1  0
 35 36  1  0
 36 37  2  0
 37 38  1  0
 38 39  2  0
 39 40  1  0
 39 41  1  0
 41 42  2  0
 42 43  1  0
 34 44  1  0
 44 45  2  0
 44 46  1  0
 46 47  1  0
 46 48  1  0
 48 49  2  0
 27 23  1  0
 49 29  1  0
 48 32  1  0
 42 36  1  0
M  END

