
     RDKit          3D

 52 54  0  0  0  0  0  0  0  0999 V2000
    5.7569    2.0647    1.1131 C   0  0  0  0  0  0  0  0  0  0  0  0
    4.1735    1.6029    1.2752 C   0  0  2  0  0  0  0  0  0  0  0  0
    4.5365    0.0756    1.7774 C   0  0  0  0  0  0  0  0  0  0  0  0
    5.2902   -0.5698    0.7706 N   0  0  0  0  0  0  0  0  0  0  0  0
    6.6243   -0.5288    0.7113 N   0  0  0  0  0  0  0  0  0  0  0  0
    7.0860   -1.2128   -0.3258 C   0  0  0  0  0  0  0  0  0  0  0  0
    5.9980   -1.7097   -0.9523 N   0  0  0  0  0  0  0  0  0  0  0  0
    4.9398   -1.3078   -0.2727 N   0  0  0  0  0  0  0  0  0  0  0  0
    4.0200    1.1970   -0.2431 N   0  0  0  0  0  0  0  0  0  0  0  0
    2.7072    0.7102   -0.5497 C   0  0  0  0  0  0  0  0  0  0  0  0
    2.4425    0.3325   -1.7990 N   0  0  0  0  0  0  0  0  0  0  0  0
    1.2252   -0.1433   -2.1871 C   0  0  0  0  0  0  0  0  0  0  0  0
    0.2201   -0.2446   -1.2687 C   0  0  0  0  0  0  0  0  0  0  0  0
   -1.0551   -0.7204   -1.5793 C   0  0  0  0  0  0  0  0  0  0  0  0
   -1.9636   -0.7631   -0.5420 C   0  0  0  0  0  0  0  0  0  0  0  0
   -3.2450   -1.2299   -0.8058 O   0  0  0  0  0  0  0  0  0  0  0  0
   -4.3349   -0.4039   -0.5890 C   0  0  0  0  0  0  0  0  0  0  0  0
   -4.2283    0.8741   -0.1200 C   0  0  0  0  0  0  0  0  0  0  0  0
   -5.3488    1.6487    0.0760 C   0  0  0  0  0  0  0  0  0  0  0  0
   -6.6037    1.1341   -0.2031 C   0  0  0  0  0  0  0  0  0  0  0  0
   -7.6779    1.9199    0.0003 F   0  0  0  0  0  0  0  0  0  0  0  0
   -6.7078   -0.1572   -0.6768 C   0  0  0  0  0  0  0  0  0  0  0  0
   -5.5821   -0.9231   -0.8692 C   0  0  0  0  0  0  0  0  0  0  0  0
   -5.7278   -2.1934   -1.3383 F   0  0  0  0  0  0  0  0  0  0  0  0
   -1.6726   -0.3684    0.7442 C   0  0  0  0  0  0  0  0  0  0  0  0
   -2.5494   -0.4342    1.6410 O   0  0  0  0  0  0  0  0  0  0  0  0
   -0.4175    0.0918    1.0154 N   0  0  0  0  0  0  0  0  0  0  0  0
   -0.1117    0.5054    2.3617 C   0  0  0  0  0  0  0  0  0  0  0  0
    0.4913    0.1457    0.0250 C   0  0  0  0  0  0  0  0  0  0  0  0
    1.7147    0.6079    0.3472 N   0  0  0  0  0  0  0  0  0  0  0  0
   -6.6865    1.1994    0.9829 O   0  0  0  0  0  1  0  0  0  0  0  0
   -5.5397    0.9749    0.2676 C   0  0  0  0  0  0  0  0  0  0  0  0
   -4.5519    1.7391    0.3732 O   0  0  0  0  0  0  0  0  0  0  0  0
   -5.4978   -0.1977   -0.6359 C   0  0  0  0  0  0  0  0  0  0  0  0
   -4.1699   -0.2615   -1.3063 C   0  0  0  0  0  0  0  0  0  0  0  0
   -3.0339   -0.3997   -0.3083 C   0  0  0  0  0  0  0  0  0  0  0  0
   -1.8331   -0.4418   -1.1016 N   0  0  0  0  0  0  0  0  0  0  0  0
   -0.5231   -0.5589   -0.6519 C   0  0  0  0  0  0  0  0  0  0  0  0
   -0.2806   -0.6429    0.5287 O   0  0  0  0  0  0  0  0  0  0  0  0
    0.5083   -0.5616   -1.8229 C   0  0  2  0  0  0  0  0  0  0  0  0
    0.4707   -2.1165   -2.2723 C   0  0  0  0  0  0  0  0  0  0  0  0
    0.8809   -2.9835   -1.2105 C   0  0  0  0  0  0  0  0  0  0  0  0
    0.8772   -4.3500   -1.4165 O   0  0  0  0  0  1  0  0  0  0  0  0
    1.2482   -2.5797   -0.0959 O   0  0  0  0  0  0  0  0  0  0  0  0
    1.8438   -0.6784   -0.9901 N   0  0  0  0  0  0  0  0  0  0  0  0
    2.2945    0.4893   -0.3445 C   0  0  0  0  0  0  0  0  0  0  0  0
    1.5159    1.4700   -0.5494 O   0  0  0  0  0  0  0  0  0  0  0  0
    3.4950    0.6209    0.4693 C   0  0  0  0  0  0  0  0  0  0  0  0
    3.5890    2.0686    0.9259 C   0  0  0  0  0  0  0  0  0  0  0  0
    4.7698    2.3114    1.7547 C   0  0  0  0  0  0  0  0  0  0  0  0
    5.7102    1.3841    2.1169 O   0  0  0  0  0  1  0  0  0  0  0  0
    4.9129    3.5144    2.1678 O   0  0  0  0  0  0  0  0  0  0  0  0
  2  1  1  6
  2  3  1  0
  3  4  1  0
  4  5  1  0
  5  6  2  0
  6  7  1  0
  7  8  2  0
  2  9  1  0
  9 10  1  0
 10 11  2  0
 11 12  1  0
 12 13  2  0
 13 14  1  0
 14 15  2  0
 15 16  1  0
 16 17  1  0
 17 18  2  0
 18 19  1  0
 19 20  2  0
 20 21  1  0
 20 22  1  0
 22 23  2  0
 23 24  1  0
 15 25  1  0
 25 26  2  0
 25 27  1  0
 27 28  1  0
 27 29  1  0
 29 30  2  0
 31 32  1  0
 32 33  2  0
 32 34  1  0
 34 35  1  0
 35 36  1  0
 36 37  1  0
 37 38  1  0
 38 39  2  0
 38 40  1  0
 40 41  1  6
 41 42  1  0
 42 43  1  0
 42 44  2  0
 40 45  1  0
 45 46  1  0
 46 47  2  0
 46 48  1  0
 48 49  1  0
 49 50  1  0
 50 51  1  0
 50 52  2  0
  8  4  1  0
 30 10  1  0
 29 13  1  0
 23 17  1  0
M  RAD  3  31   2  43   2  51   2
M  END

