
     RDKit          3D

 47 49  0  0  0  0  0  0  0  0999 V2000
   -4.5166   -1.1637    1.0743 C   0  0  0  0  0  0  0  0  0  0  0  0
   -3.3630   -0.2985    0.9629 N   0  0  0  0  0  0  0  0  0  0  0  0
   -2.0661   -0.7964    1.0968 C   0  0  0  0  0  0  0  0  0  0  0  0
   -1.8612   -1.9694    1.3113 O   0  0  0  0  0  0  0  0  0  0  0  0
   -0.9713    0.3062    0.9391 C   0  0  2  0  0  0  0  0  0  0  0  0
   -0.9397    0.2247   -0.7128 C   0  0  0  0  0  0  0  0  0  0  0  0
   -2.3778    0.5838   -1.0374 C   0  0  0  0  0  0  0  0  0  0  0  0
   -2.6431    2.2562   -0.3399 S   0  0  0  0  0  0  0  0  0  0  0  0
   -4.3435    2.7890   -0.6495 C   0  0  0  0  0  0  0  0  0  0  0  0
    0.2842   -0.5849    1.1328 N   0  0  0  0  0  0  0  0  0  0  0  0
    1.5224   -0.1625    0.7304 C   0  0  0  0  0  0  0  0  0  0  0  0
    1.6544    0.9867    0.1846 O   0  0  0  0  0  0  0  0  0  0  0  0
    2.7099   -1.0130    0.9180 C   0  0  0  0  0  0  0  0  0  0  0  0
    3.9816   -0.4111    0.4545 C   0  0  0  0  0  0  0  0  0  0  0  0
    3.9914   -0.0689   -1.0126 C   0  0  0  0  0  0  0  0  0  0  0  0
    5.3219    0.5422   -1.4252 C   0  0  0  0  0  0  0  0  0  0  0  0
    3.6165   -1.2203   -1.8972 C   0  0  0  0  0  0  0  0  0  0  0  0
    4.0984    0.4965   -2.9491 C   0  0  0  0  0  0  0  0  0  0  0  0
    4.8327    0.6832   -1.4702 C   0  0  2  0  0  0  0  0  0  0  0  0
    4.1214   -0.6721   -0.8410 C   0  0  0  0  0  0  0  0  0  0  0  0
    4.6280   -0.7329    0.5123 N   0  0  0  0  0  0  0  0  0  0  0  0
    4.0852   -0.1830    1.5763 N   0  0  0  0  0  0  0  0  0  0  0  0
    4.8799   -0.4855    2.6251 C   0  0  0  0  0  0  0  0  0  0  0  0
    5.9228   -1.2334    2.1813 N   0  0  0  0  0  0  0  0  0  0  0  0
    5.7339   -1.3657    0.8736 N   0  0  0  0  0  0  0  0  0  0  0  0
    3.7741    1.6645   -0.8488 N   0  0  0  0  0  0  0  0  0  0  0  0
    2.4597    1.3377   -0.7347 C   0  0  0  0  0  0  0  0  0  0  0  0
    1.5836    2.2020   -0.1977 N   0  0  0  0  0  0  0  0  0  0  0  0
    0.2786    1.9296   -0.0631 C   0  0  0  0  0  0  0  0  0  0  0  0
   -0.1837    0.7109   -0.4941 C   0  0  0  0  0  0  0  0  0  0  0  0
   -1.5400    0.3806   -0.3742 C   0  0  0  0  0  0  0  0  0  0  0  0
   -1.9801   -0.8359   -0.8086 C   0  0  0  0  0  0  0  0  0  0  0  0
   -3.3043   -1.1673   -0.6954 O   0  0  0  0  0  0  0  0  0  0  0  0
   -4.2295   -0.2907   -0.1436 C   0  0  0  0  0  0  0  0  0  0  0  0
   -5.3234    0.1808   -0.8394 C   0  0  0  0  0  0  0  0  0  0  0  0
   -6.2396    1.0504   -0.2893 C   0  0  0  0  0  0  0  0  0  0  0  0
   -6.0599    1.4677    1.0051 C   0  0  0  0  0  0  0  0  0  0  0  0
   -6.9851    2.3254    1.5116 F   0  0  0  0  0  0  0  0  0  0  0  0
   -4.9824    1.0259    1.7441 C   0  0  0  0  0  0  0  0  0  0  0  0
   -4.0711    0.1435    1.1557 C   0  0  0  0  0  0  0  0  0  0  0  0
   -3.0211   -0.2821    1.8874 F   0  0  0  0  0  0  0  0  0  0  0  0
   -1.0981   -1.7216   -1.3559 C   0  0  0  0  0  0  0  0  0  0  0  0
   -1.4358   -2.8689   -1.7803 O   0  0  0  0  0  0  0  0  0  0  0  0
    0.2199   -1.3785   -1.4628 N   0  0  0  0  0  0  0  0  0  0  0  0
    1.1631   -2.3228   -2.0469 C   0  0  0  0  0  0  0  0  0  0  0  0
    0.6813   -0.2062   -1.0515 C   0  0  0  0  0  0  0  0  0  0  0  0
    1.9914    0.1482   -1.1521 N   0  0  0  0  0  0  0  0  0  0  0  0
  1  2  1  0
  2  3  1  0
  3  4  2  0
  3  5  1  0
  5  6  1  6
  6  7  1  0
  7  8  1  0
  8  9  1  0
  5 10  1  0
 10 11  1  0
 11 12  2  0
 11 13  1  0
 13 14  1  0
 14 15  1  0
 15 16  1  0
 15 17  1  0
 19 18  1  6
 19 20  1  0
 20 21  1  0
 21 22  1  0
 22 23  2  0
 23 24  1  0
 24 25  2  0
 19 26  1  0
 26 27  1  0
 27 28  2  0
 28 29  1  0
 29 30  2  0
 30 31  1  0
 31 32  2  0
 32 33  1  0
 33 34  1  0
 34 35  2  0
 35 36  1  0
 36 37  2  0
 37 38  1  0
 37 39  1  0
 39 40  2  0
 40 41  1  0
 32 42  1  0
 42 43  2  0
 42 44  1  0
 44 45  1  0
 44 46  1  0
 46 47  2  0
 25 21  1  0
 47 27  1  0
 46 30  1  0
 40 34  1  0
M  END

