
     RDKit          3D

 26 26  0  0  0  0  0  0  0  0999 V2000
   -6.0085    1.5883   -3.1461 N   0  0  0  0  0  0  0  0  0  0  0  0
   -5.8556    1.2776   -1.7704 C   0  0  0  0  0  0  0  0  0  0  0  0
   -6.6721    0.4583   -1.2728 O   0  0  0  0  0  0  0  0  0  0  0  0
   -4.7994    1.8723   -0.9424 C   0  0  0  0  0  0  0  0  0  0  0  0
   -4.9040    1.3476    0.4737 C   0  0  0  0  0  0  0  0  0  0  0  0
   -4.7408   -0.1617    0.3953 C   0  0  0  0  0  0  0  0  0  0  0  0
   -3.4461   -0.4422   -0.1784 N   0  0  0  0  0  0  0  0  0  0  0  0
   -2.2974    0.0490    0.5157 C   0  0  0  0  0  0  0  0  0  0  0  0
   -2.3024    0.6869    1.5517 O   0  0  0  0  0  0  0  0  0  0  0  0
   -0.9275   -0.3249   -0.2145 C   0  0  2  0  0  0  0  0  0  0  0  0
   -0.8107   -1.8573    0.3407 C   0  0  0  0  0  0  0  0  0  0  0  0
   -0.7276   -1.8795    1.7700 C   0  0  0  0  0  0  0  0  0  0  0  0
   -0.6934   -3.1618    2.3679 O   0  0  0  0  0  1  0  0  0  0  0  0
   -0.6787   -0.9657    2.6076 O   0  0  0  0  0  0  0  0  0  0  0  0
    0.0360    0.3005    0.8571 N   0  0  0  0  0  0  0  0  0  0  0  0
    1.3548   -0.2331    0.7865 C   0  0  0  0  0  0  0  0  0  0  0  0
    1.6132   -1.1001   -0.0698 O   0  0  0  0  0  0  0  0  0  0  0  0
    2.3482    0.2846    1.7495 C   0  0  0  0  0  0  0  0  0  0  0  0
    3.6957   -0.3113    1.5644 C   0  0  0  0  0  0  0  0  0  0  0  0
    4.3110   -0.0635    0.2518 C   0  0  0  0  0  0  0  0  0  0  0  0
    4.2006   -0.8728   -0.8317 C   0  0  0  0  0  0  0  0  0  0  0  0
    4.8138   -0.5528   -2.0131 C   0  0  0  0  0  0  0  0  0  0  0  0
    5.5644    0.6137   -2.1237 C   0  0  0  0  0  0  0  0  0  0  0  0
    6.1636    0.8880   -3.3446 O   0  0  0  0  0  0  0  0  0  0  0  0
    5.6966    1.4566   -1.0442 C   0  0  0  0  0  0  0  0  0  0  0  0
    5.0664    1.1032    0.1280 C   0  0  0  0  0  0  0  0  0  0  0  0
  1  2  1  0
  2  3  2  0
  2  4  1  0
  4  5  1  0
  5  6  1  0
  6  7  1  0
  7  8  1  0
  8  9  2  0
  8 10  1  0
 10 11  1  1
 11 12  1  0
 12 13  1  0
 12 14  2  0
 10 15  1  0
 15 16  1  0
 16 17  2  0
 16 18  1  0
 18 19  1  0
 19 20  1  0
 20 21  2  0
 21 22  1  0
 22 23  2  0
 23 24  1  0
 23 25  1  0
 25 26  2  0
 26 20  1  0
M  RAD  1  13   2
M  END

