
     RDKit          3D

 57 61  0  0  0  0  0  0  0  0999 V2000
    1.7116    2.7121   -2.0128 C   0  0  0  0  0  0  0  0  0  0  0  0
    0.9094    1.6832   -1.2633 C   0  0  0  0  0  0  0  0  0  0  0  0
    1.1645    1.9599    0.3524 C   0  0  2  0  0  0  0  0  0  0  0  0
    2.7464    2.0684    0.2173 C   0  0  0  0  0  0  0  0  0  0  0  0
    1.3191    0.0317    0.5102 C   0  0  2  0  0  0  0  0  0  0  0  0
    2.4365    0.2209   -0.5811 N   0  0  0  0  0  0  0  0  0  0  0  0
    3.4022   -0.7873   -0.3770 C   0  0  0  0  0  0  0  0  0  0  0  0
    3.2166   -1.8452    0.2173 O   0  0  0  0  0  0  0  0  0  0  0  0
    4.8689   -0.4839   -0.8331 C   0  0  0  0  0  0  0  0  0  0  0  0
    5.3872   -0.1476    0.6604 C   0  0  0  0  0  0  0  0  0  0  0  0
    6.8275   -0.2034    0.7819 C   0  0  0  0  0  0  0  0  0  0  0  0
    7.4363    0.2799    1.9464 O   0  0  0  0  0  1  0  0  0  0  0  0
    7.4826   -0.7000   -0.1614 O   0  0  0  0  0  0  0  0  0  0  0  0
   -0.0442   -0.0364   -0.1858 C   0  0  0  0  0  0  0  0  0  0  0  0
   -0.9277    0.2616    0.6493 O   0  0  0  0  0  0  0  0  0  0  0  0
   -0.1289   -0.4283   -1.4548 N   0  0  0  0  0  0  0  0  0  0  0  0
   -1.4081   -0.5347   -2.0938 C   0  0  0  0  0  0  0  0  0  0  0  0
   -2.4444    0.3092   -1.4408 C   0  0  0  0  0  0  0  0  0  0  0  0
   -3.2728   -0.5059   -0.5639 C   0  0  0  0  0  0  0  0  0  0  0  0
   -3.1449   -1.7096    0.1260 C   0  0  0  0  0  0  0  0  0  0  0  0
   -3.9642   -1.8989    0.9201 N   0  0  0  0  0  0  0  0  0  0  0  0
   -4.8796   -1.0180    1.0241 C   0  0  0  0  0  0  0  0  0  0  0  0
   -6.0807   -0.6106    1.7055 C   0  0  0  0  0  0  0  0  0  0  0  0
   -6.5434    0.4773    1.3894 C   0  0  0  0  0  0  0  0  0  0  0  0
   -6.3681    1.4329    0.6498 C   0  0  0  0  0  0  0  0  0  0  0  0
   -5.1565    1.1585   -0.2021 C   0  0  0  0  0  0  0  0  0  0  0  0
   -4.5453    0.0166    0.0200 C   0  0  0  0  0  0  0  0  0  0  0  0
    3.7392   -1.2074    2.3581 C   0  0  0  0  0  0  0  0  0  0  0  0
    4.3562   -2.1147    1.1101 C   0  0  2  0  0  0  0  0  0  0  0  0
    5.8940   -1.5172    1.1603 C   0  0  0  0  0  0  0  0  0  0  0  0
    5.9323   -0.1555    0.9496 N   0  0  0  0  0  0  0  0  0  0  0  0
    6.0538    0.4685   -0.2323 N   0  0  0  0  0  0  0  0  0  0  0  0
    6.0540    1.7867   -0.0521 C   0  0  0  0  0  0  0  0  0  0  0  0
    5.9288    1.9715    1.2800 N   0  0  0  0  0  0  0  0  0  0  0  0
    5.8556    0.8034    1.8820 N   0  0  0  0  0  0  0  0  0  0  0  0
    3.8845   -1.0806    0.0092 N   0  0  0  0  0  0  0  0  0  0  0  0
    2.4693   -0.9050    0.0245 C   0  0  0  0  0  0  0  0  0  0  0  0
    1.6331   -1.5351    0.8655 N   0  0  0  0  0  0  0  0  0  0  0  0
    0.3068   -1.3195    0.8220 C   0  0  0  0  0  0  0  0  0  0  0  0
   -0.2641   -0.4465   -0.0812 C   0  0  0  0  0  0  0  0  0  0  0  0
   -1.6293   -0.2218   -0.1293 C   0  0  0  0  0  0  0  0  0  0  0  0
   -2.1650    0.6602   -1.0481 C   0  0  0  0  0  0  0  0  0  0  0  0
   -3.5248    0.9256   -1.1430 O   0  0  0  0  0  0  0  0  0  0  0  0
   -4.3903    0.2747   -0.2740 C   0  0  0  0  0  0  0  0  0  0  0  0
   -3.9647   -0.6253    0.6819 C   0  0  0  0  0  0  0  0  0  0  0  0
   -4.8656   -1.2479    1.5243 C   0  0  0  0  0  0  0  0  0  0  0  0
   -6.2226   -1.0094    1.4594 C   0  0  0  0  0  0  0  0  0  0  0  0
   -7.0919   -1.6350    2.3004 F   0  0  0  0  0  0  0  0  0  0  0  0
   -6.6446   -0.1091    0.5026 C   0  0  0  0  0  0  0  0  0  0  0  0
   -5.7477    0.5150   -0.3408 C   0  0  0  0  0  0  0  0  0  0  0  0
   -6.1669    1.4120   -1.2943 F   0  0  0  0  0  0  0  0  0  0  0  0
   -1.2630    1.2857   -1.8939 C   0  0  0  0  0  0  0  0  0  0  0  0
   -1.7444    2.1008   -2.7452 O   0  0  0  0  0  0  0  0  0  0  0  0
    0.0661    1.0521   -1.8304 N   0  0  0  0  0  0  0  0  0  0  0  0
    0.9891    1.7285   -2.7372 C   0  0  0  0  0  0  0  0  0  0  0  0
    0.6018    0.1971   -0.9422 C   0  0  0  0  0  0  0  0  0  0  0  0
    1.9204   -0.0519   -0.8596 N   0  0  0  0  0  0  0  0  0  0  0  0
  1  2  1  0
  2  3  1  0
  3  4  1  6
  3  5  1  0
  5  6  1  6
  6  7  1  0
  7  8  2  0
  7  9  1  0
  9 10  1  0
 10 11  1  0
 11 12  1  0
 11 13  2  0
  5 14  1  0
 14 15  2  0
 14 16  1  0
 16 17  1  0
 17 18  1  0
 18 19  1  0
 19 20  2  0
 20 21  1  0
 21 22  1  0
 22 23  2  0
 23 24  1  0
 24 25  2  0
 25 26  1  0
 26 27  2  0
 29 28  1  1
 29 30  1  0
 30 31  1  0
 31 32  1  0
 32 33  2  0
 33 34  1  0
 34 35  2  0
 29 36  1  0
 36 37  1  0
 37 38  2  0
 38 39  1  0
 39 40  2  0
 40 41  1  0
 41 42  2  0
 42 43  1  0
 43 44  1  0
 44 45  2  0
 45 46  1  0
 46 47  2  0
 47 48  1  0
 47 49  1  0
 49 50  2  0
 50 51  1  0
 42 52  1  0
 52 53  2  0
 52 54  1  0
 54 55  1  0
 54 56  1  0
 56 57  2  0
 27 19  1  0
 35 31  1  0
 57 37  1  0
 27 22  1  0
 56 40  1  0
 50 44  1  0
M  RAD  1  12   2
M  END

