
     RDKit          3D

 23 22  0  0  0  0  0  0  0  0999 V2000
   -6.6672    2.9890    0.5982 C   0  0  0  0  0  0  0  0  0  0  0  0
   -5.6786    2.0706   -0.0173 C   0  0  0  0  0  0  0  0  0  0  0  0
   -6.1930    0.9588   -0.8278 C   0  0  0  0  0  0  0  0  0  0  0  0
   -4.4193    1.8707    0.7209 C   0  0  0  0  0  0  0  0  0  0  0  0
   -3.5656    0.9407   -0.0014 N   0  0  0  0  0  0  0  0  0  0  0  0
   -2.3017    0.5433    0.4378 C   0  0  0  0  0  0  0  0  0  0  0  0
   -1.8504    0.9595    1.4563 O   0  0  0  0  0  0  0  0  0  0  0  0
   -1.6138   -0.4811   -0.5606 C   0  0  2  0  0  0  0  0  0  0  0  0
   -2.3905   -1.7962    0.0790 C   0  0  0  0  0  0  0  0  0  0  0  0
   -1.8733   -2.9138   -0.7598 C   0  0  0  0  0  0  0  0  0  0  0  0
   -0.3741   -3.0470   -0.6527 C   0  0  0  0  0  0  0  0  0  0  0  0
   -2.5273   -4.2172   -0.3429 C   0  0  0  0  0  0  0  0  0  0  0  0
   -0.3117   -0.7194    0.3022 N   0  0  0  0  0  0  0  0  0  0  0  0
    0.8932   -0.5356   -0.4835 C   0  0  0  0  0  0  0  0  0  0  0  0
    0.8867   -0.2227   -1.6886 O   0  0  0  0  0  0  0  0  0  0  0  0
    2.1565   -0.7430    0.2227 C   0  0  0  0  0  0  0  0  0  0  0  0
    3.3127   -0.7117   -0.7444 C   0  0  0  0  0  0  0  0  0  0  0  0
    4.5429   -0.9408    0.1499 C   0  0  0  0  0  0  0  0  0  0  0  0
    4.5349    0.2425    1.1075 C   0  0  0  0  0  0  0  0  0  0  0  0
    4.6776    1.4112    0.2047 N   0  0  0  0  0  0  0  0  0  0  0  0
    5.8707    1.4415   -0.6028 C   0  0  0  0  0  0  0  0  0  0  0  0
    6.1892    2.4535   -1.5137 N   0  0  0  0  0  0  0  0  0  0  0  0
    6.7022    0.4473   -0.4660 N   0  0  0  0  0  4  0  0  0  0  0  0
  1  2  1  0
  2  3  1  0
  2  4  1  0
  4  5  1  0
  5  6  1  0
  6  7  2  0
  6  8  1  0
  8  9  1  1
  9 10  1  0
 10 11  1  0
 10 12  1  0
  8 13  1  0
 13 14  1  0
 14 15  2  0
 14 16  1  0
 16 17  1  0
 17 18  1  0
 18 19  1  0
 19 20  1  0
 20 21  1  0
 21 22  1  0
 21 23  2  0
M  CHG  1  23   1
M  END

