
     RDKit          3D

 48 50  0  0  0  0  0  0  0  0999 V2000
   -3.9888   -1.9979   -2.6573 C   0  0  0  0  0  0  0  0  0  0  0  0
   -2.9560   -0.9622   -2.4609 C   0  0  0  0  0  0  0  0  0  0  0  0
   -2.1773   -0.5893   -3.3437 O   0  0  0  0  0  0  0  0  0  0  0  0
   -2.8838   -0.3982   -1.2049 N   0  0  0  0  0  0  0  0  0  0  0  0
   -1.8136    0.7055   -0.9253 C   0  0  1  0  0  0  0  0  0  0  0  0
   -2.1167    0.6772    0.6763 C   0  0  0  0  0  0  0  0  0  0  0  0
   -1.2775    1.6248    1.3859 C   0  0  0  0  0  0  0  0  0  0  0  0
   -1.3511    3.0525    1.0670 C   0  0  0  0  0  0  0  0  0  0  0  0
   -1.1447    1.2429    2.8219 C   0  0  0  0  0  0  0  0  0  0  0  0
   -0.5106   -0.1511   -0.8476 C   0  0  0  0  0  0  0  0  0  0  0  0
   -0.4858   -1.3554   -0.9877 O   0  0  0  0  0  0  0  0  0  0  0  0
    0.7126    0.4303   -0.6100 N   0  0  0  0  0  0  0  0  0  0  0  0
    2.0098   -0.1325   -0.4986 C   0  0  0  0  0  0  0  0  0  0  0  0
    1.8949   -1.1070    0.6787 C   0  0  0  0  0  0  0  0  0  0  0  0
    3.2400   -1.7550    0.8660 C   0  0  0  0  0  0  0  0  0  0  0  0
    4.1951   -0.6252    1.1498 C   0  0  0  0  0  0  0  0  0  0  0  0
    3.8258    0.1482    2.3740 C   0  0  0  0  0  0  0  0  0  0  0  0
    4.8277    1.1924    2.5164 N   0  0  0  0  0  4  0  0  0  0  0  0
    6.3259    1.5568   -0.5625 C   0  0  0  0  0  0  0  0  0  0  0  0
    5.1147    1.7297    0.5149 C   0  0  2  0  0  0  0  0  0  0  0  0
    5.2856    0.2426    1.1370 C   0  0  0  0  0  0  0  0  0  0  0  0
    5.0901   -0.7356    0.1138 N   0  0  0  0  0  0  0  0  0  0  0  0
    3.8878   -1.2262   -0.1318 N   0  0  0  0  0  0  0  0  0  0  0  0
    3.9620   -2.1118   -1.1190 C   0  0  0  0  0  0  0  0  0  0  0  0
    5.2402   -2.1624   -1.4840 N   0  0  0  0  0  0  0  0  0  0  0  0
    5.9092   -1.3165   -0.7204 N   0  0  0  0  0  0  0  0  0  0  0  0
    3.9932    1.3732   -0.5035 N   0  0  0  0  0  0  0  0  0  0  0  0
    2.6777    1.3938    0.0133 C   0  0  0  0  0  0  0  0  0  0  0  0
    2.4209    1.6994    1.2906 N   0  0  0  0  0  0  0  0  0  0  0  0
    1.1410    1.7035    1.7315 C   0  0  0  0  0  0  0  0  0  0  0  0
    0.0751    1.4023    0.9101 C   0  0  0  0  0  0  0  0  0  0  0  0
   -1.2355    1.3989    1.3317 C   0  0  0  0  0  0  0  0  0  0  0  0
   -2.2465    1.0854    0.4443 C   0  0  0  0  0  0  0  0  0  0  0  0
   -3.5539    1.0888    0.8912 O   0  0  0  0  0  0  0  0  0  0  0  0
   -4.3524   -0.0670    0.8389 C   0  0  0  0  0  0  0  0  0  0  0  0
   -5.5118   -0.0495    0.1078 C   0  0  0  0  0  0  0  0  0  0  0  0
   -6.3181   -1.1820    0.0416 C   0  0  0  0  0  0  0  0  0  0  0  0
   -5.9375   -2.3219    0.7200 C   0  0  0  0  0  0  0  0  0  0  0  0
   -6.6795   -3.4451    0.6905 F   0  0  0  0  0  0  0  0  0  0  0  0
   -4.7626   -2.3687    1.4723 C   0  0  0  0  0  0  0  0  0  0  0  0
   -3.9937   -1.2183    1.5081 C   0  0  0  0  0  0  0  0  0  0  0  0
   -2.8338   -1.1843    2.2197 F   0  0  0  0  0  0  0  0  0  0  0  0
   -1.9172    0.7827   -0.8459 C   0  0  0  0  0  0  0  0  0  0  0  0
   -2.8336    0.4941   -1.6677 O   0  0  0  0  0  0  0  0  0  0  0  0
   -0.6195    0.7943   -1.2315 N   0  0  0  0  0  0  0  0  0  0  0  0
   -0.3678    0.4581   -2.6265 C   0  0  0  0  0  0  0  0  0  0  0  0
    0.3791    1.0912   -0.4045 C   0  0  0  0  0  0  0  0  0  0  0  0
    1.6608    1.0943   -0.8177 N   0  0  0  0  0  0  0  0  0  0  0  0
  1  2  1  0
  2  3  2  0
  2  4  1  0
  4  5  1  0
  5  6  1  1
  6  7  1  0
  7  8  1  0
  7  9  1  0
  5 10  1  0
 10 11  2  0
 10 12  1  0
 12 13  1  0
 13 14  1  0
 14 15  1  0
 15 16  1  0
 16 17  1  0
 17 18  1  0
 20 19  1  6
 20 21  1  0
 21 22  1  0
 22 23  1  0
 23 24  2  0
 24 25  1  0
 25 26  2  0
 20 27  1  0
 27 28  1  0
 28 29  2  0
 29 30  1  0
 30 31  2  0
 31 32  1  0
 32 33  2  0
 33 34  1  0
 34 35  1  0
 35 36  2  0
 36 37  1  0
 37 38  2  0
 38 39  1  0
 38 40  1  0
 40 41  2  0
 41 42  1  0
 33 43  1  0
 43 44  2  0
 43 45  1  0
 45 46  1  0
 45 47  1  0
 47 48  2  0
 26 22  1  0
 48 28  1  0
 47 31  1  0
 41 35  1  0
M  CHG  1  18   1
M  END

