
     RDKit          3D

 23 22  0  0  0  0  0  0  0  0999 V2000
    4.0436    0.4468    0.1567 C   0  0  0  0  0  0  0  0  0  0  0  0
    4.2908   -0.9881    0.4671 C   0  0  0  0  0  0  0  0  0  0  0  0
    5.7789   -1.2631    0.4206 C   0  0  0  0  0  0  0  0  0  0  0  0
    3.5767   -2.0020   -0.3097 C   0  0  0  0  0  0  0  0  0  0  0  0
    2.1354   -2.0931   -0.3356 C   0  0  0  0  0  0  0  0  0  0  0  0
    1.4016   -0.9686   -0.8916 C   0  0  0  0  0  0  0  0  0  0  0  0
    2.0451   -0.0512   -1.4586 O   0  0  0  0  0  0  0  0  0  0  0  0
   -0.0432   -0.8841   -0.8068 N   0  0  0  0  0  0  0  0  0  0  0  0
   -0.5396    0.4347   -1.4919 C   0  0  1  0  0  0  0  0  0  0  0  0
   -2.1189   -0.0162   -1.5130 C   0  0  0  0  0  0  0  0  0  0  0  0
   -2.5687   -0.2436   -0.1286 C   0  0  0  0  0  0  0  0  0  0  0  0
   -1.8187   -1.3318    0.5496 C   0  0  0  0  0  0  0  0  0  0  0  0
   -2.0621   -2.5543   -0.2349 N   0  0  0  0  0  0  0  0  0  0  0  0
   -1.5183   -3.8119    0.0867 C   0  0  0  0  0  0  0  0  0  0  0  0
   -1.7821   -4.9674   -0.7033 N   0  0  0  0  0  0  0  0  0  0  0  0
   -0.7632   -3.8801    1.1356 N   0  0  0  0  0  4  0  0  0  0  0  0
   -0.6568    1.3572   -0.2035 C   0  0  0  0  0  0  0  0  0  0  0  0
   -0.4114    1.0441    0.9169 O   0  0  0  0  0  0  0  0  0  0  0  0
   -1.0993    2.6496   -0.5050 N   0  0  0  0  0  0  0  0  0  0  0  0
   -1.2523    3.5977    0.5814 C   0  0  0  0  0  0  0  0  0  0  0  0
   -1.7432    4.8906   -0.0858 C   0  0  0  0  0  0  0  0  0  0  0  0
   -3.0582    4.6595   -0.7957 C   0  0  0  0  0  0  0  0  0  0  0  0
   -1.8363    5.9751    0.9324 C   0  0  0  0  0  0  0  0  0  0  0  0
  1  2  1  0
  2  3  1  0
  2  4  1  0
  4  5  1  0
  5  6  1  0
  6  7  2  0
  6  8  1  0
  8  9  1  0
  9 10  1  1
 10 11  1  0
 11 12  1  0
 12 13  1  0
 13 14  1  0
 14 15  1  0
 14 16  2  0
  9 17  1  0
 17 18  2  0
 17 19  1  0
 19 20  1  0
 20 21  1  0
 21 22  1  0
 21 23  1  0
M  CHG  1  16   1
M  END

