
     RDKit          3D

 21 20  0  0  0  0  0  0  0  0999 V2000
    0.0893   -2.2744    0.9251 C   0  0  0  0  0  0  0  0  0  0  0  0
    1.0002   -1.3366    1.5088 C   0  0  0  0  0  0  0  0  0  0  0  0
    0.6356    0.1966    1.4052 C   0  0  2  0  0  0  0  0  0  0  0  0
   -0.7840    0.2064    2.1439 C   0  0  0  0  0  0  0  0  0  0  0  0
    0.1150    0.3723   -0.1535 C   0  0  2  0  0  0  0  0  0  0  0  0
   -1.0448   -0.6191   -0.2056 N   0  0  0  0  0  0  0  0  0  0  0  0
   -2.3378    0.0067   -0.0084 C   0  0  0  0  0  0  0  0  0  0  0  0
   -2.4250    1.2427    0.1815 O   0  0  0  0  0  0  0  0  0  0  0  0
   -3.5780   -0.7764   -0.0228 C   0  0  0  0  0  0  0  0  0  0  0  0
   -4.8253   -0.0271    0.0501 C   0  0  0  0  0  0  0  0  0  0  0  0
   -5.2432    0.9106   -0.9618 C   0  0  0  0  0  0  0  0  0  0  0  0
   -4.4380    2.0857   -1.2912 C   0  0  0  0  0  0  0  0  0  0  0  0
   -6.4073    0.5806   -1.8014 C   0  0  0  0  0  0  0  0  0  0  0  0
    1.2036   -0.4316   -0.9121 C   0  0  0  0  0  0  0  0  0  0  0  0
    0.9996   -1.5323   -1.4282 O   0  0  0  0  0  0  0  0  0  0  0  0
    2.5086    0.1963   -0.9850 N   0  0  0  0  0  0  0  0  0  0  0  0
    3.5306   -0.5523   -1.6912 C   0  0  0  0  0  0  0  0  0  0  0  0
    4.8303    0.2520   -1.6761 C   0  0  0  0  0  0  0  0  0  0  0  0
    5.2390    0.4728   -0.2577 C   0  0  0  0  0  0  0  0  0  0  0  0
    6.2503   -0.3236    0.2535 O   0  0  0  0  0  1  0  0  0  0  0  0
    4.6812    1.3507    0.4359 O   0  0  0  0  0  0  0  0  0  0  0  0
  1  2  1  0
  2  3  1  0
  3  4  1  1
  3  5  1  0
  5  6  1  1
  6  7  1  0
  7  8  2  0
  7  9  1  0
  9 10  1  0
 10 11  1  0
 11 12  1  0
 11 13  1  0
  5 14  1  0
 14 15  2  0
 14 16  1  0
 16 17  1  0
 17 18  1  0
 18 19  1  0
 19 20  1  0
 19 21  2  0
M  RAD  1  20   2
M  END

