
     RDKit          3D

 22 21  0  0  0  0  0  0  0  0999 V2000
    4.5702    1.5757   -0.2606 C   0  0  0  0  0  0  0  0  0  0  0  0
    5.4838    0.6983    0.5244 C   0  0  0  0  0  0  0  0  0  0  0  0
    5.7392    1.1664    1.9244 C   0  0  0  0  0  0  0  0  0  0  0  0
    5.2446   -0.7356    0.4502 C   0  0  0  0  0  0  0  0  0  0  0  0
    4.1031   -1.4464    0.8421 C   0  0  0  0  0  0  0  0  0  0  0  0
    2.8022   -1.3812    0.4675 N   0  0  0  0  0  0  0  0  0  0  0  0
    1.7506   -0.4759    0.5118 C   0  0  0  0  0  0  0  0  0  0  0  0
    1.9201    0.6245    1.0276 O   0  0  0  0  0  0  0  0  0  0  0  0
    0.3450   -0.8719   -0.1035 C   0  0  2  0  0  0  0  0  0  0  0  0
    0.7481   -0.3976   -1.6443 C   0  0  0  0  0  0  0  0  0  0  0  0
   -0.4833   -0.6866   -2.4765 C   0  0  0  0  0  0  0  0  0  0  0  0
   -1.6879    0.0752   -1.9885 C   0  0  0  0  0  0  0  0  0  0  0  0
   -0.7833   -2.1725   -2.5141 C   0  0  0  0  0  0  0  0  0  0  0  0
   -0.3887    0.4679    0.2214 N   0  0  0  0  0  0  0  0  0  0  0  0
   -1.6268    0.2102    0.8934 C   0  0  0  0  0  0  0  0  0  0  0  0
   -1.9926   -0.9683    1.1465 O   0  0  0  0  0  0  0  0  0  0  0  0
   -2.5371    1.3039    1.3242 C   0  0  0  0  0  0  0  0  0  0  0  0
   -3.7501    0.7207    1.9843 C   0  0  0  0  0  0  0  0  0  0  0  0
   -4.4650   -0.1815    0.9918 C   0  0  0  0  0  0  0  0  0  0  0  0
   -4.8655    0.6405   -0.2012 C   0  0  0  0  0  0  0  0  0  0  0  0
   -5.5317   -0.0250   -1.2174 O   0  0  0  0  0  1  0  0  0  0  0  0
   -4.5948    1.8595   -0.2406 O   0  0  0  0  0  0  0  0  0  0  0  0
  1  2  1  0
  2  3  1  0
  2  4  1  0
  4  5  1  0
  5  6  1  0
  6  7  1  0
  7  8  2  0
  7  9  1  0
  9 10  1  6
 10 11  1  0
 11 12  1  0
 11 13  1  0
  9 14  1  0
 14 15  1  0
 15 16  2  0
 15 17  1  0
 17 18  1  0
 18 19  1  0
 19 20  1  0
 20 21  1  0
 20 22  2  0
M  RAD  1  21   2
M  END

