
     RDKit          3D

 50 52  0  0  0  0  0  0  0  0999 V2000
    5.7331   -2.0896    0.0269 C   0  0  0  0  0  0  0  0  0  0  0  0
    4.2691   -1.5665   -0.5590 C   0  0  2  0  0  0  0  0  0  0  0  0
    4.3458   -0.0705    0.1516 C   0  0  0  0  0  0  0  0  0  0  0  0
    5.5017    0.5779   -0.3552 N   0  0  0  0  0  0  0  0  0  0  0  0
    6.6756    0.4573    0.2473 N   0  0  0  0  0  0  0  0  0  0  0  0
    7.6155    1.1507   -0.4030 C   0  0  0  0  0  0  0  0  0  0  0  0
    6.9962    1.7199   -1.4459 N   0  0  0  0  0  0  0  0  0  0  0  0
    5.7163    1.3571   -1.3941 N   0  0  0  0  0  0  0  0  0  0  0  0
    3.4845   -2.1905    0.6703 N   0  0  0  0  0  0  0  0  0  0  0  0
    2.0954   -2.0024    0.6404 C   0  0  0  0  0  0  0  0  0  0  0  0
    1.3980   -2.5188    1.6678 N   0  0  0  0  0  0  0  0  0  0  0  0
    0.0388   -2.3696    1.6980 C   0  0  0  0  0  0  0  0  0  0  0  0
   -0.5618   -1.6907    0.6653 C   0  0  0  0  0  0  0  0  0  0  0  0
   -1.9453   -1.5325    0.6851 C   0  0  0  0  0  0  0  0  0  0  0  0
   -2.6040   -0.8635   -0.3186 C   0  0  0  0  0  0  0  0  0  0  0  0
   -3.9635   -0.7370   -0.2495 O   0  0  0  0  0  0  0  0  0  0  0  0
   -4.6372    0.4736   -0.2054 C   0  0  0  0  0  0  0  0  0  0  0  0
   -5.5558    0.8458   -1.1663 C   0  0  0  0  0  0  0  0  0  0  0  0
   -6.2026    2.0693   -1.0751 C   0  0  0  0  0  0  0  0  0  0  0  0
   -5.9735    2.9613   -0.0492 C   0  0  0  0  0  0  0  0  0  0  0  0
   -6.6333    4.1479   -0.0053 F   0  0  0  0  0  0  0  0  0  0  0  0
   -5.0557    2.5828    0.9056 C   0  0  0  0  0  0  0  0  0  0  0  0
   -4.4011    1.3590    0.8249 C   0  0  0  0  0  0  0  0  0  0  0  0
   -3.4956    0.9854    1.7665 F   0  0  0  0  0  0  0  0  0  0  0  0
   -1.8597   -0.3508   -1.3494 C   0  0  0  0  0  0  0  0  0  0  0  0
   -2.4127    0.2739   -2.2996 O   0  0  0  0  0  0  0  0  0  0  0  0
   -0.5000   -0.5034   -1.3740 N   0  0  0  0  0  0  0  0  0  0  0  0
    0.3154    0.0256   -2.4476 C   0  0  0  0  0  0  0  0  0  0  0  0
    0.1369   -1.1592   -0.3883 C   0  0  0  0  0  0  0  0  0  0  0  0
    1.4792   -1.3425   -0.3567 N   0  0  0  0  0  0  0  0  0  0  0  0
   -3.2733    3.5437    0.0734 N   0  0  0  0  0  0  0  0  0  0  0  0
   -2.1311    2.7583   -0.2397 C   0  0  0  0  0  0  0  0  0  0  0  0
   -1.3244    3.2314   -1.0839 O   0  0  0  0  0  0  0  0  0  0  0  0
   -1.8786    1.4409    0.3847 C   0  0  0  0  0  0  0  0  0  0  0  0
   -0.6124    0.8540   -0.1990 C   0  0  0  0  0  0  0  0  0  0  0  0
   -0.5068   -0.5616    0.6065 C   0  0  2  0  0  0  0  0  0  0  0  0
    0.8009   -1.0130   -0.0954 N   0  0  0  0  0  0  0  0  0  0  0  0
    1.8849   -0.1371    0.1226 C   0  0  0  0  0  0  0  0  0  0  0  0
    1.7653    0.8865    0.8136 O   0  0  0  0  0  0  0  0  0  0  0  0
    3.2186   -0.4317   -0.4836 C   0  0  0  0  0  0  0  0  0  0  0  0
    4.2499    0.6005   -0.1350 C   0  0  0  0  0  0  0  0  0  0  0  0
    4.4987    0.7267    1.3204 C   0  0  0  0  0  0  0  0  0  0  0  0
    5.4084    1.6389    1.8223 O   0  0  0  0  0  1  0  0  0  0  0  0
    3.8605   -0.0184    2.0939 O   0  0  0  0  0  0  0  0  0  0  0  0
   -1.4990   -1.3398   -0.3898 C   0  0  0  0  0  0  0  0  0  0  0  0
   -1.0988   -2.0007   -1.3157 O   0  0  0  0  0  0  0  0  0  0  0  0
   -2.8597   -1.1922   -0.1020 N   0  0  0  0  0  0  0  0  0  0  0  0
   -3.8652   -1.8145   -0.8725 C   0  0  0  0  0  0  0  0  0  0  0  0
   -3.8752   -3.2760   -0.9114 C   0  0  0  0  0  0  0  0  0  0  0  0
   -2.7626   -3.8959   -1.4095 O   0  0  0  0  0  0  0  0  0  0  0  0
  2  1  1  1
  2  3  1  0
  3  4  1  0
  4  5  1  0
  5  6  2  0
  6  7  1  0
  7  8  2  0
  2  9  1  0
  9 10  1  0
 10 11  2  0
 11 12  1  0
 12 13  2  0
 13 14  1  0
 14 15  2  0
 15 16  1  0
 16 17  1  0
 17 18  2  0
 18 19  1  0
 19 20  2  0
 20 21  1  0
 20 22  1  0
 22 23  2  0
 23 24  1  0
 15 25  1  0
 25 26  2  0
 25 27  1  0
 27 28  1  0
 27 29  1  0
 29 30  2  0
 31 32  1  0
 32 33  2  0
 32 34  1  0
 34 35  1  0
 36 35  1  6
 36 37  1  0
 37 38  1  0
 38 39  2  0
 38 40  1  0
 40 41  1  0
 41 42  1  0
 42 43  1  0
 42 44  2  0
 36 45  1  0
 45 46  2  0
 45 47  1  0
 47 48  1  0
 48 49  1  0
 49 50  1  0
  8  4  1  0
 30 10  1  0
 29 13  1  0
 23 17  1  0
M  RAD  1  43   2
M  END

