
     RDKit          3D

 24 23  0  0  0  0  0  0  0  0999 V2000
   -4.8765    3.9885    0.2713 C   0  0  0  0  0  0  0  0  0  0  0  0
   -3.8017    2.8491    0.3420 C   0  0  0  0  0  0  0  0  0  0  0  0
   -4.3129    1.9118   -0.8077 C   0  0  0  0  0  0  0  0  0  0  0  0
   -4.0226    2.0589    1.5816 C   0  0  0  0  0  0  0  0  0  0  0  0
   -3.2015    0.9823    2.0189 C   0  0  0  0  0  0  0  0  0  0  0  0
   -2.8678   -0.1483    1.2490 N   0  0  0  0  0  0  0  0  0  0  0  0
   -2.0355   -0.0751    0.1465 C   0  0  0  0  0  0  0  0  0  0  0  0
   -1.4770    0.9285   -0.2794 O   0  0  0  0  0  0  0  0  0  0  0  0
   -1.7535   -1.4404   -0.6811 C   0  0  2  0  0  0  0  0  0  0  0  0
   -1.1799   -2.3007    0.5907 C   0  0  0  0  0  0  0  0  0  0  0  0
   -0.8868   -3.6484    0.0448 C   0  0  0  0  0  0  0  0  0  0  0  0
   -1.0633   -3.8795   -1.2991 O   0  0  0  0  0  1  0  0  0  0  0  0
   -0.4826   -4.5788    0.7746 O   0  0  0  0  0  0  0  0  0  0  0  0
   -0.4149   -0.9579   -1.3419 N   0  0  0  0  0  0  0  0  0  0  0  0
    0.8132   -1.1669   -0.8237 C   0  0  0  0  0  0  0  0  0  0  0  0
    0.9844   -1.7780    0.2224 O   0  0  0  0  0  0  0  0  0  0  0  0
    2.0039   -0.6402   -1.5257 C   0  0  0  0  0  0  0  0  0  0  0  0
    3.2400   -1.0468   -0.7852 C   0  0  0  0  0  0  0  0  0  0  0  0
    3.3638   -0.6535    0.6146 C   0  0  0  0  0  0  0  0  0  0  0  0
    3.3658    0.7094    1.0668 C   0  0  0  0  0  0  0  0  0  0  0  0
    4.3028    1.6541    0.7188 N   0  0  0  0  0  0  0  0  0  0  0  0
    4.6148    2.1919   -0.5168 C   0  0  0  0  0  0  0  0  0  0  0  0
    5.6658    3.1864   -0.6091 N   0  0  0  0  0  0  0  0  0  0  0  0
    4.0218    1.8536   -1.5852 N   0  0  0  0  0  4  0  0  0  0  0  0
  1  2  1  0
  2  3  1  0
  2  4  1  0
  4  5  1  0
  5  6  1  0
  6  7  1  0
  7  8  2  0
  7  9  1  0
  9 10  1  1
 10 11  1  0
 11 12  1  0
 11 13  2  0
  9 14  1  0
 14 15  1  0
 15 16  2  0
 15 17  1  0
 17 18  1  0
 18 19  1  0
 19 20  1  0
 20 21  1  0
 21 22  1  0
 22 23  1  0
 22 24  2  0
M  CHG  1  24   1
M  RAD  1  12   2
M  END

