
     RDKit          3D

 46 49  0  0  0  0  0  0  0  0999 V2000
    1.8442    2.7649    0.7263 C   0  0  0  0  0  0  0  0  0  0  0  0
    2.8724    1.6668    0.8460 C   0  0  0  0  0  0  0  0  0  0  0  0
    2.2398    0.3905    1.1526 N   0  0  0  0  0  0  0  0  0  0  0  0
    1.2937   -0.0500    0.1612 C   0  0  0  0  0  0  0  0  0  0  0  0
    1.0246    0.5552   -0.8423 O   0  0  0  0  0  0  0  0  0  0  0  0
    0.6049   -1.4606    0.5153 C   0  0  2  0  0  0  0  0  0  0  0  0
    1.8315   -2.3453   -0.1568 C   0  0  0  0  0  0  0  0  0  0  0  0
    0.9457   -3.4513   -0.6356 C   0  0  0  0  0  0  0  0  0  0  0  0
    0.0375   -2.5933   -1.5335 C   0  0  0  0  0  0  0  0  0  0  0  0
   -0.3296   -1.4956   -0.7358 N   0  0  0  0  0  0  0  0  0  0  0  0
   -1.3063   -0.4784   -0.8126 C   0  0  0  0  0  0  0  0  0  0  0  0
   -2.0615   -0.5153   -1.8365 O   0  0  0  0  0  0  0  0  0  0  0  0
   -1.5319    0.5933    0.1512 C   0  0  0  0  0  0  0  0  0  0  0  0
   -2.7950    1.4874   -0.4292 C   0  0  1  0  0  0  0  0  0  0  0  0
   -2.7751    2.5533    0.8436 C   0  0  0  0  0  0  0  0  0  0  0  0
   -1.8949    2.3784   -1.2842 O   0  0  0  0  0  0  0  0  0  0  0  0
    3.7923   -0.5655    0.4507 C   0  0  0  0  0  0  0  0  0  0  0  0
    3.9929    1.0828    0.4828 C   0  0  2  0  0  0  0  0  0  0  0  0
    5.4706    0.9536    1.2336 C   0  0  0  0  0  0  0  0  0  0  0  0
    6.2331    0.1733    0.2661 N   0  0  0  0  0  0  0  0  0  0  0  0
    6.3842   -1.1129    0.1376 N   0  0  0  0  0  0  0  0  0  0  0  0
    7.1870   -1.3694   -0.9127 C   0  0  0  0  0  0  0  0  0  0  0  0
    7.5305   -0.1748   -1.4349 N   0  0  0  0  0  0  0  0  0  0  0  0
    6.9353    0.7459   -0.6971 N   0  0  0  0  0  0  0  0  0  0  0  0
    3.2248    1.2693    1.8488 N   0  0  0  0  0  0  0  0  0  0  0  0
    1.8894    0.8582    1.9058 C   0  0  0  0  0  0  0  0  0  0  0  0
    1.1100    0.9525    2.9926 N   0  0  0  0  0  0  0  0  0  0  0  0
   -0.1704    0.5455    3.0069 C   0  0  0  0  0  0  0  0  0  0  0  0
   -0.7281    0.0010    1.8560 C   0  0  0  0  0  0  0  0  0  0  0  0
   -2.0201   -0.4359    1.7882 C   0  0  0  0  0  0  0  0  0  0  0  0
   -2.4696   -0.9592    0.5942 C   0  0  0  0  0  0  0  0  0  0  0  0
   -3.7810   -1.4325    0.4311 O   0  0  0  0  0  0  0  0  0  0  0  0
   -4.5300   -0.7932   -0.5475 C   0  0  0  0  0  0  0  0  0  0  0  0
   -5.0647   -1.4221   -1.6304 C   0  0  0  0  0  0  0  0  0  0  0  0
   -5.7962   -0.7063   -2.5537 C   0  0  0  0  0  0  0  0  0  0  0  0
   -6.0033    0.6512   -2.4061 C   0  0  0  0  0  0  0  0  0  0  0  0
   -6.7284    1.3593   -3.3217 F   0  0  0  0  0  0  0  0  0  0  0  0
   -5.4578    1.2679   -1.3101 C   0  0  0  0  0  0  0  0  0  0  0  0
   -4.7216    0.5736   -0.3716 C   0  0  0  0  0  0  0  0  0  0  0  0
   -4.2060    1.2365    0.6926 F   0  0  0  0  0  0  0  0  0  0  0  0
   -1.6335   -1.0347   -0.4906 C   0  0  0  0  0  0  0  0  0  0  0  0
   -2.0558   -1.5165   -1.5809 O   0  0  0  0  0  0  0  0  0  0  0  0
   -0.3711   -0.6032   -0.4093 N   0  0  0  0  0  0  0  0  0  0  0  0
    0.5358   -0.6752   -1.5550 C   0  0  0  0  0  0  0  0  0  0  0  0
    0.0874   -0.0883    0.7486 C   0  0  0  0  0  0  0  0  0  0  0  0
    1.3642    0.3340    0.7861 N   0  0  0  0  0  0  0  0  0  0  0  0
  1  2  1  0
  2  3  1  0
  3  4  1  0
  4  5  2  0
  6  4  1  6
  6  7  1  0
  7  8  1  0
  8  9  1  0
  9 10  1  0
 10 11  1  0
 11 12  2  0
 11 13  1  0
 13 14  1  0
 14 15  1  1
 14 16  1  0
 18 17  1  1
 18 19  1  0
 19 20  1  0
 20 21  1  0
 21 22  2  0
 22 23  1  0
 23 24  2  0
 18 25  1  0
 25 26  1  0
 26 27  2  0
 27 28  1  0
 28 29  2  0
 29 30  1  0
 30 31  2  0
 31 32  1  0
 32 33  1  0
 33 34  2  0
 34 35  1  0
 35 36  2  0
 36 37  1  0
 36 38  1  0
 38 39  2  0
 39 40  1  0
 31 41  1  0
 41 42  2  0
 41 43  1  0
 43 44  1  0
 43 45  1  0
 45 46  2  0
 10  6  1  0
 24 20  1  0
 46 26  1  0
 45 29  1  0
 39 33  1  0
M  END

