
     RDKit          3D

 28 28  0  0  0  0  0  0  0  0999 V2000
    8.5108   -0.1791   -0.5627 N   0  0  0  0  0  0  0  0  0  0  0  0
    7.0976   -0.2802   -0.2704 C   0  0  0  0  0  0  0  0  0  0  0  0
    6.4932    0.8388   -0.0948 N   0  0  0  0  0  4  0  0  0  0  0  0
    6.5037   -1.5241   -0.2062 N   0  0  0  0  0  0  0  0  0  0  0  0
    5.1889   -1.9026    0.0466 C   0  0  0  0  0  0  0  0  0  0  0  0
    4.6705   -1.5225    1.3721 C   0  0  0  0  0  0  0  0  0  0  0  0
    4.5276   -0.0650    1.6585 C   0  0  0  0  0  0  0  0  0  0  0  0
    3.5052    0.5353    0.6927 C   0  0  0  0  0  0  0  0  0  0  0  0
    2.2217   -0.2062    0.9666 C   0  0  0  0  0  0  0  0  0  0  0  0
    2.1319   -1.1375    1.8228 O   0  0  0  0  0  0  0  0  0  0  0  0
    1.1250    0.2143    0.1943 N   0  0  0  0  0  0  0  0  0  0  0  0
   -0.2355   -0.5064    0.4205 C   0  0  1  0  0  0  0  0  0  0  0  0
   -0.9345    0.7724    1.1616 C   0  0  0  0  0  0  0  0  0  0  0  0
   -0.8869    1.9425    0.3336 C   0  0  0  0  0  0  0  0  0  0  0  0
   -1.8118    2.9885    0.1726 N   0  0  0  0  0  0  0  0  0  0  0  0
    0.1730    2.0830   -0.3975 O   0  0  0  0  0  0  0  0  0  0  0  0
   -0.9322   -0.3899   -0.9588 C   0  0  0  0  0  0  0  0  0  0  0  0
   -0.6876    0.3296   -1.8783 O   0  0  0  0  0  0  0  0  0  0  0  0
   -1.9949   -1.3201   -1.0446 N   0  0  0  0  0  0  0  0  0  0  0  0
   -2.7949   -1.4198   -2.2377 C   0  0  0  0  0  0  0  0  0  0  0  0
   -3.5403   -0.1349   -2.4342 C   0  0  0  0  0  0  0  0  0  0  0  0
   -4.4428   -0.0213   -1.2442 C   0  0  0  0  0  0  0  0  0  0  0  0
   -3.9781    0.6078   -0.1422 C   0  0  0  0  0  0  0  0  0  0  0  0
   -4.7767    0.7356    0.9904 C   0  0  0  0  0  0  0  0  0  0  0  0
   -6.0411    0.2090    0.9613 C   0  0  0  0  0  0  0  0  0  0  0  0
   -6.8197    0.3475    2.1047 O   0  0  0  0  0  0  0  0  0  0  0  0
   -6.5517   -0.4470   -0.1630 C   0  0  0  0  0  0  0  0  0  0  0  0
   -5.7205   -0.5483   -1.2636 C   0  0  0  0  0  0  0  0  0  0  0  0
  1  2  1  0
  2  3  2  0
  2  4  1  0
  4  5  1  0
  5  6  1  0
  6  7  1  0
  7  8  1  0
  8  9  1  0
  9 10  2  0
  9 11  1  0
 11 12  1  0
 12 13  1  1
 13 14  1  0
 14 15  1  0
 14 16  2  0
 12 17  1  0
 17 18  2  0
 17 19  1  0
 19 20  1  0
 20 21  1  0
 21 22  1  0
 22 23  2  0
 23 24  1  0
 24 25  2  0
 25 26  1  0
 25 27  1  0
 27 28  2  0
 28 22  1  0
M  CHG  1   3   1
M  END

