
     RDKit          3D

 53 56  0  0  0  0  0  0  0  0999 V2000
    1.3070    1.2987   -2.6405 C   0  0  0  0  0  0  0  0  0  0  0  0
    1.1275   -0.1456   -3.0692 C   0  0  0  0  0  0  0  0  0  0  0  0
    0.0962   -0.0841   -4.1804 C   0  0  0  0  0  0  0  0  0  0  0  0
    0.2879   -0.8671   -1.8137 C   0  0  2  0  0  0  0  0  0  0  0  0
   -0.9246    0.0486   -1.9389 N   0  0  0  0  0  0  0  0  0  0  0  0
   -2.1715   -0.1243   -1.4504 C   0  0  0  0  0  0  0  0  0  0  0  0
   -2.3711   -1.2004   -0.7937 O   0  0  0  0  0  0  0  0  0  0  0  0
   -3.3103    0.8247   -1.6185 C   0  0  0  0  0  0  0  0  0  0  0  0
   -4.5730    0.4616   -1.0045 C   0  0  0  0  0  0  0  0  0  0  0  0
   -4.4905    0.3967    0.4634 C   0  0  0  0  0  0  0  0  0  0  0  0
   -4.1574   -0.7145    1.1870 C   0  0  0  0  0  0  0  0  0  0  0  0
   -4.2027   -0.3912    2.4955 N   0  0  0  0  0  0  0  0  0  0  0  0
   -4.5542    0.8865    2.5605 C   0  0  0  0  0  0  0  0  0  0  0  0
   -4.7362    1.3913    1.3534 N   0  0  0  0  0  0  0  0  0  0  0  0
    1.1138   -0.2132   -0.6406 C   0  0  0  0  0  0  0  0  0  0  0  0
    0.4310    0.3206    0.2331 O   0  0  0  0  0  0  0  0  0  0  0  0
    2.4833   -0.2410   -0.6135 N   0  0  0  0  0  0  0  0  0  0  0  0
    3.3744    0.2848    0.3424 C   0  0  0  0  0  0  0  0  0  0  0  0
    3.1595   -0.3497    1.6753 C   0  0  0  0  0  0  0  0  0  0  0  0
    4.1314    0.1967    2.7290 C   0  0  0  0  0  0  0  0  0  0  0  0
    5.5280   -0.0445    2.3121 C   0  0  0  0  0  0  0  0  0  0  0  0
    6.5781    0.3179    3.2003 N   0  0  0  0  0  0  0  0  0  0  0  0
    5.8736   -0.5561    1.2119 O   0  0  0  0  0  0  0  0  0  0  0  0
    3.8949    0.2042    0.5081 C   0  0  0  0  0  0  0  0  0  0  0  0
    4.3059    0.7473   -1.0216 C   0  0  2  0  0  0  0  0  0  0  0  0
    5.4986    1.7532   -0.4502 C   0  0  0  0  0  0  0  0  0  0  0  0
    6.4166    0.8569    0.2249 N   0  0  0  0  0  0  0  0  0  0  0  0
    7.4436    0.2434   -0.2853 N   0  0  0  0  0  0  0  0  0  0  0  0
    7.9994   -0.4745    0.6930 C   0  0  0  0  0  0  0  0  0  0  0  0
    7.2681   -0.2673    1.8028 N   0  0  0  0  0  0  0  0  0  0  0  0
    6.2925    0.5551    1.5084 N   0  0  0  0  0  0  0  0  0  0  0  0
    3.2047    1.8863   -1.0049 N   0  0  0  0  0  0  0  0  0  0  0  0
    1.8695    1.4192   -0.8577 C   0  0  0  0  0  0  0  0  0  0  0  0
    0.8504    2.2859   -0.8294 N   0  0  0  0  0  0  0  0  0  0  0  0
   -0.4138    1.8605   -0.6911 C   0  0  0  0  0  0  0  0  0  0  0  0
   -0.7469    0.5292   -0.5710 C   0  0  0  0  0  0  0  0  0  0  0  0
   -2.0458    0.0821   -0.4283 C   0  0  0  0  0  0  0  0  0  0  0  0
   -2.2631   -1.2757   -0.3162 C   0  0  0  0  0  0  0  0  0  0  0  0
   -3.5557   -1.7503   -0.1722 O   0  0  0  0  0  0  0  0  0  0  0  0
   -4.6569   -0.9087   -0.1351 C   0  0  0  0  0  0  0  0  0  0  0  0
   -5.6518   -1.0487   -1.0975 C   0  0  0  0  0  0  0  0  0  0  0  0
   -6.7356   -0.2119   -1.0515 C   0  0  0  0  0  0  0  0  0  0  0  0
   -6.9088    0.7671   -0.1092 C   0  0  0  0  0  0  0  0  0  0  0  0
   -7.9983    1.5715   -0.1037 F   0  0  0  0  0  0  0  0  0  0  0  0
   -5.9022    0.8922    0.8461 C   0  0  0  0  0  0  0  0  0  0  0  0
   -4.7997    0.0653    0.8263 C   0  0  0  0  0  0  0  0  0  0  0  0
   -3.8308    0.2181    1.7817 F   0  0  0  0  0  0  0  0  0  0  0  0
   -1.1965   -2.1480   -0.3483 C   0  0  0  0  0  0  0  0  0  0  0  0
   -1.4539   -3.3751   -0.2418 O   0  0  0  0  0  0  0  0  0  0  0  0
    0.0461   -1.6645   -0.4886 N   0  0  0  0  0  0  0  0  0  0  0  0
    1.1724   -2.5870   -0.5223 C   0  0  0  0  0  0  0  0  0  0  0  0
    0.3225   -0.3419   -0.6033 C   0  0  0  0  0  0  0  0  0  0  0  0
    1.5747    0.1163   -0.7428 N   0  0  0  0  0  0  0  0  0  0  0  0
  1  2  1  0
  2  3  1  0
  2  4  1  0
  4  5  1  1
  5  6  1  0
  6  7  2  0
  6  8  1  0
  8  9  1  0
  9 10  1  0
 10 11  2  0
 11 12  1  0
 12 13  1  0
 13 14  2  0
  4 15  1  0
 15 16  2  0
 15 17  1  0
 17 18  1  0
 18 19  1  0
 19 20  1  0
 20 21  1  0
 21 22  1  0
 21 23  2  0
 25 24  1  1
 25 26  1  0
 26 27  1  0
 27 28  1  0
 28 29  2  0
 29 30  1  0
 30 31  2  0
 25 32  1  0
 32 33  1  0
 33 34  2  0
 34 35  1  0
 35 36  2  0
 36 37  1  0
 37 38  2  0
 38 39  1  0
 39 40  1  0
 40 41  2  0
 41 42  1  0
 42 43  2  0
 43 44  1  0
 43 45  1  0
 45 46  2  0
 46 47  1  0
 38 48  1  0
 48 49  2  0
 48 50  1  0
 50 51  1  0
 50 52  1  0
 52 53  2  0
 14 10  1  0
 31 27  1  0
 53 33  1  0
 52 36  1  0
 46 40  1  0
M  END

