
     RDKit          3D

 27 28  0  0  0  0  0  0  0  0999 V2000
    4.9305    4.3973    0.0316 N   0  0  0  0  0  0  0  0  0  0  0  0
    5.0341    2.9992    0.1263 C   0  0  0  0  0  0  0  0  0  0  0  0
    6.1155    2.4210   -0.0875 O   0  0  0  0  0  0  0  0  0  0  0  0
    3.8317    2.2199    0.4862 C   0  0  0  0  0  0  0  0  0  0  0  0
    4.1400    0.7619    0.5361 C   0  0  0  0  0  0  0  0  0  0  0  0
    2.9633   -0.0046    0.8894 N   0  0  0  0  0  0  0  0  0  0  0  0
    1.8061    0.0567    0.0553 C   0  0  0  0  0  0  0  0  0  0  0  0
    1.7108    0.7112   -0.9544 O   0  0  0  0  0  0  0  0  0  0  0  0
    0.6130   -0.8560    0.6091 C   0  0  2  0  0  0  0  0  0  0  0  0
    1.1429   -2.2501   -0.1142 C   0  0  0  0  0  0  0  0  0  0  0  0
    0.1146   -3.2464    0.3085 C   0  0  0  0  0  0  0  0  0  0  0  0
   -1.0138   -3.4807   -0.4289 C   0  0  0  0  0  0  0  0  0  0  0  0
   -1.9675   -4.3983   -0.0441 C   0  0  0  0  0  0  0  0  0  0  0  0
   -1.7913   -5.1070    1.1148 C   0  0  0  0  0  0  0  0  0  0  0  0
   -2.7345   -6.0416    1.5333 O   0  0  0  0  0  0  0  0  0  0  0  0
   -0.6616   -4.8874    1.8737 C   0  0  0  0  0  0  0  0  0  0  0  0
    0.2800   -3.9700    1.4779 C   0  0  0  0  0  0  0  0  0  0  0  0
   -0.4156   -0.5229   -0.5368 N   0  0  0  0  0  0  0  0  0  0  0  0
   -0.9682    0.7858   -0.5058 C   0  0  0  0  0  0  0  0  0  0  0  0
   -0.5933    1.5464    0.4159 O   0  0  0  0  0  0  0  0  0  0  0  0
   -1.9521    1.2738   -1.5043 C   0  0  0  0  0  0  0  0  0  0  0  0
   -2.3970    2.6803   -1.2547 C   0  0  0  0  0  0  0  0  0  0  0  0
   -3.0485    2.8569    0.0519 C   0  0  0  0  0  0  0  0  0  0  0  0
   -4.4092    2.7100    0.2810 C   0  0  0  0  0  0  0  0  0  0  0  0
   -4.6916    2.9368    1.5593 N   0  0  0  0  0  0  0  0  0  0  0  0
   -3.5093    3.2284    2.1458 C   0  0  0  0  0  0  0  0  0  0  0  0
   -2.5289    3.1795    1.2406 N   0  0  0  0  0  0  0  0  0  0  0  0
  1  2  1  0
  2  3  2  0
  2  4  1  0
  4  5  1  0
  5  6  1  0
  6  7  1  0
  7  8  2  0
  7  9  1  0
  9 10  1  6
 10 11  1  0
 11 12  2  0
 12 13  1  0
 13 14  2  0
 14 15  1  0
 14 16  1  0
 16 17  2  0
  9 18  1  0
 18 19  1  0
 19 20  2  0
 19 21  1  0
 21 22  1  0
 22 23  1  0
 23 24  2  0
 24 25  1  0
 25 26  1  0
 26 27  2  0
 17 11  1  0
 27 23  1  0
M  END

