
     RDKit          3D

 47 49  0  0  0  0  0  0  0  0999 V2000
    4.6516   -2.0051    1.0630 C   0  0  0  0  0  0  0  0  0  0  0  0
    4.2198   -0.6447    1.5147 C   0  0  0  0  0  0  0  0  0  0  0  0
    3.3537    0.0548    0.6023 N   0  0  0  0  0  0  0  0  0  0  0  0
    2.0945   -0.3674    0.1508 C   0  0  0  0  0  0  0  0  0  0  0  0
    1.6638   -1.4173    0.5515 O   0  0  0  0  0  0  0  0  0  0  0  0
    1.4281    0.6272   -0.8335 C   0  0  1  0  0  0  0  0  0  0  0  0
    0.1060   -0.0935   -1.1394 N   0  0  0  0  0  0  0  0  0  0  0  0
   -0.8964   -0.2495   -0.2014 C   0  0  0  0  0  0  0  0  0  0  0  0
   -0.7217    0.2231    0.9495 O   0  0  0  0  0  0  0  0  0  0  0  0
   -2.1882   -0.9645   -0.5121 C   0  0  0  0  0  0  0  0  0  0  0  0
   -3.0918   -0.8620    0.8282 C   0  0  1  0  0  0  0  0  0  0  0  0
   -3.1169    0.7757    0.8223 C   0  0  0  0  0  0  0  0  0  0  0  0
   -4.5116   -0.9642    0.0082 C   0  0  0  0  0  0  0  0  0  0  0  0
   -5.5173   -0.8845    1.1149 C   0  0  0  0  0  0  0  0  0  0  0  0
    0.7846    1.6581    0.3666 C   0  0  1  0  0  0  0  0  0  0  0  0
    1.9233    2.8281    0.0921 C   0  0  0  0  0  0  0  0  0  0  0  0
   -0.1813    2.2856   -0.6086 O   0  0  0  0  0  0  0  0  0  0  0  0
    4.3044   -3.0358   -0.8469 C   0  0  0  0  0  0  0  0  0  0  0  0
    5.1823   -1.6448   -0.7950 C   0  0  2  0  0  0  0  0  0  0  0  0
    4.7303   -1.3029    0.7431 C   0  0  0  0  0  0  0  0  0  0  0  0
    5.4442   -0.0530    0.9607 N   0  0  0  0  0  0  0  0  0  0  0  0
    6.6729   -0.0281    1.4531 N   0  0  0  0  0  0  0  0  0  0  0  0
    7.0766    1.2491    1.5446 C   0  0  0  0  0  0  0  0  0  0  0  0
    6.0692    2.0212    1.0969 N   0  0  0  0  0  0  0  0  0  0  0  0
    5.0985    1.1809    0.7534 N   0  0  0  0  0  0  0  0  0  0  0  0
    4.1072   -0.7278   -1.4476 N   0  0  0  0  0  0  0  0  0  0  0  0
    2.8308   -0.6099   -0.9258 C   0  0  0  0  0  0  0  0  0  0  0  0
    2.5247   -1.3272    0.1883 N   0  0  0  0  0  0  0  0  0  0  0  0
    1.3233   -1.2898    0.7770 C   0  0  0  0  0  0  0  0  0  0  0  0
    0.3078   -0.4830    0.2465 C   0  0  0  0  0  0  0  0  0  0  0  0
   -0.9101   -0.4030    0.7868 C   0  0  0  0  0  0  0  0  0  0  0  0
   -1.9241    0.4343    0.2147 C   0  0  0  0  0  0  0  0  0  0  0  0
   -3.1155    0.4763    0.7951 O   0  0  0  0  0  0  0  0  0  0  0  0
   -4.4139    0.1945    0.6158 C   0  0  0  0  0  0  0  0  0  0  0  0
   -4.9872   -0.8147    1.4596 C   0  0  0  0  0  0  0  0  0  0  0  0
   -6.2915   -1.1828    1.3688 C   0  0  0  0  0  0  0  0  0  0  0  0
   -7.1575   -0.6141    0.4609 C   0  0  0  0  0  0  0  0  0  0  0  0
   -8.4476   -1.0261    0.4170 F   0  0  0  0  0  0  0  0  0  0  0  0
   -6.6445    0.3482   -0.3544 C   0  0  0  0  0  0  0  0  0  0  0  0
   -5.2959    0.7394   -0.2710 C   0  0  0  0  0  0  0  0  0  0  0  0
   -4.9876    1.7276   -1.1435 F   0  0  0  0  0  0  0  0  0  0  0  0
   -1.5197    1.1127   -0.8980 C   0  0  0  0  0  0  0  0  0  0  0  0
   -2.2658    1.8926   -1.5293 O   0  0  0  0  0  0  0  0  0  0  0  0
   -0.2654    1.0139   -1.4337 N   0  0  0  0  0  0  0  0  0  0  0  0
    0.0650    1.7832   -2.6291 C   0  0  0  0  0  0  0  0  0  0  0  0
    0.6378    0.2273   -0.8709 C   0  0  0  0  0  0  0  0  0  0  0  0
    1.8515    0.1421   -1.4028 N   0  0  0  0  0  0  0  0  0  0  0  0
  1  2  1  0
  2  3  1  0
  3  4  1  0
  4  5  2  0
  4  6  1  0
  6  7  1  1
  7  8  1  0
  8  9  2  0
  8 10  1  0
 10 11  1  0
 11 12  1  6
 11 13  1  0
 13 14  1  0
  6 15  1  0
 15 16  1  6
 15 17  1  0
 19 18  1  6
 19 20  1  0
 20 21  1  0
 21 22  1  0
 22 23  2  0
 23 24  1  0
 24 25  2  0
 19 26  1  0
 26 27  1  0
 27 28  2  0
 28 29  1  0
 29 30  2  0
 30 31  1  0
 31 32  2  0
 32 33  1  0
 33 34  1  0
 34 35  2  0
 35 36  1  0
 36 37  2  0
 37 38  1  0
 37 39  1  0
 39 40  2  0
 40 41  1  0
 32 42  1  0
 42 43  2  0
 42 44  1  0
 44 45  1  0
 44 46  1  0
 46 47  2  0
 25 21  1  0
 47 27  1  0
 46 30  1  0
 40 34  1  0
M  END

