
     RDKit          3D

 15 14  0  0  0  0  0  0  0  0999 V2000
    4.9359    0.4792   -0.0722 C   0  0  0  0  0  0  0  0  0  0  0  0
    3.9506    0.7553   -1.1993 C   0  0  0  0  0  0  0  0  0  0  0  0
    2.6558   -0.1818   -0.7265 C   0  0  2  0  0  0  0  0  0  0  0  0
    1.8118    0.3018   -2.0542 C   0  0  0  0  0  0  0  0  0  0  0  0
    2.0991    0.9759    0.2243 C   0  0  0  0  0  0  0  0  0  0  0  0
    0.9660    0.5000    0.8692 N   0  0  0  0  0  0  0  0  0  0  0  0
   -0.2347    0.1010    0.2915 C   0  0  0  0  0  0  0  0  0  0  0  0
   -0.4670    0.1129   -0.8805 O   0  0  0  0  0  0  0  0  0  0  0  0
   -1.3244   -0.3969    1.3858 C   0  0  2  0  0  0  0  0  0  0  0  0
   -0.8183   -1.9826    1.3220 C   0  0  0  0  0  0  0  0  0  0  0  0
   -1.8371   -2.9144    2.4551 S   0  0  0  0  0  0  0  0  0  0  0  0
   -2.4730   -0.6107    0.3536 N   0  0  0  0  0  0  0  0  0  0  0  0
   -2.9273    0.5551   -0.3047 C   0  0  0  0  0  0  0  0  0  0  0  0
   -3.9891    0.6541   -1.3128 C   0  0  0  0  0  0  0  0  0  0  0  0
   -2.3482    1.6509    0.0136 O   0  0  0  0  0  0  0  0  0  0  0  0
  1  2  1  0
  2  3  1  0
  3  4  1  6
  3  5  1  0
  5  6  1  0
  6  7  1  0
  7  8  2  0
  7  9  1  0
  9 10  1  6
 10 11  1  0
  9 12  1  0
 12 13  1  0
 13 14  1  0
 13 15  2  0
M  END

