
     RDKit          3D

 19 18  0  0  0  0  0  0  0  0999 V2000
   -0.2159    4.4398   -0.9161 C   0  0  0  0  0  0  0  0  0  0  0  0
   -0.0903    2.9300   -1.2123 C   0  0  0  0  0  0  0  0  0  0  0  0
   -1.3461    2.2836   -0.4187 C   0  0  2  0  0  0  0  0  0  0  0  0
   -0.9215    2.7646    1.0451 C   0  0  0  0  0  0  0  0  0  0  0  0
   -0.8121    0.6892   -0.4322 C   0  0  2  0  0  0  0  0  0  0  0  0
   -2.1254    0.1901    0.3553 N   0  0  0  0  0  0  0  0  0  0  0  0
   -2.6389   -1.0116   -0.1454 C   0  0  0  0  0  0  0  0  0  0  0  0
   -2.0384   -1.5391   -1.1279 O   0  0  0  0  0  0  0  0  0  0  0  0
   -3.8424   -1.6618    0.4357 C   0  0  0  0  0  0  0  0  0  0  0  0
   -4.1199   -2.9826   -0.3042 C   0  0  0  0  0  0  0  0  0  0  0  0
   -5.5759   -3.7180    0.4498 S   0  0  0  0  0  0  0  0  0  0  0  0
    0.0887    0.5827    0.8512 C   0  0  0  0  0  0  0  0  0  0  0  0
   -0.1545    0.9135    1.9480 O   0  0  0  0  0  0  0  0  0  0  0  0
    1.3411   -0.0187    0.5012 N   0  0  0  0  0  0  0  0  0  0  0  0
    2.3519   -0.2302    1.5423 C   0  0  0  0  0  0  0  0  0  0  0  0
    3.5261   -0.9279    0.9384 C   0  0  0  0  0  0  0  0  0  0  0  0
    4.1871   -0.1633   -0.1773 C   0  0  0  0  0  0  0  0  0  0  0  0
    5.5794   -1.1890   -0.8010 S   0  0  0  0  0  0  0  0  0  0  0  0
    6.8069   -1.3514    0.4910 C   0  0  0  0  0  0  0  0  0  0  0  0
  1  2  1  0
  2  3  1  0
  3  4  1  1
  3  5  1  0
  5  6  1  1
  6  7  1  0
  7  8  2  0
  7  9  1  0
  9 10  1  0
 10 11  1  0
  5 12  1  0
 12 13  2  0
 12 14  1  0
 14 15  1  0
 15 16  1  0
 16 17  1  0
 17 18  1  0
 18 19  1  0
M  END

