
     RDKit          3D

 24 23  0  0  0  0  0  0  0  0999 V2000
   -6.4648   -2.3861   -0.0725 C   0  0  0  0  0  0  0  0  0  0  0  0
   -5.2534   -2.8774   -0.8477 C   0  0  0  0  0  0  0  0  0  0  0  0
   -5.6639   -2.9041   -2.3099 C   0  0  0  0  0  0  0  0  0  0  0  0
   -4.0907   -1.8989   -0.6610 C   0  0  0  0  0  0  0  0  0  0  0  0
   -3.7618   -1.8055    0.8222 C   0  0  0  0  0  0  0  0  0  0  0  0
   -2.7019   -0.9072    1.1350 N   0  0  0  0  0  0  0  0  0  0  0  0
   -1.4018   -1.0479    0.6709 C   0  0  0  0  0  0  0  0  0  0  0  0
   -0.9874   -1.9212   -0.0339 O   0  0  0  0  0  0  0  0  0  0  0  0
   -0.4449    0.1270    1.1888 C   0  0  2  0  0  0  0  0  0  0  0  0
   -0.1759    0.7888   -0.2720 C   0  0  0  0  0  0  0  0  0  0  0  0
    0.7029    2.0216   -0.0211 C   0  0  0  0  0  0  0  0  0  0  0  0
   -0.0954    2.9401    0.8915 C   0  0  0  0  0  0  0  0  0  0  0  0
    0.7137    4.1384    1.1613 N   0  0  0  0  0  0  0  0  0  0  0  0
    1.0944    4.9223    0.0307 C   0  0  0  0  0  0  0  0  0  0  0  0
    1.8728    6.1175    0.1326 N   0  0  0  0  0  0  0  0  0  0  0  0
    0.7112    4.5372   -1.1544 N   0  0  0  0  0  4  0  0  0  0  0  0
    0.8198   -0.7139    1.3528 N   0  0  0  0  0  0  0  0  0  0  0  0
    1.9471   -0.7441    0.6069 C   0  0  0  0  0  0  0  0  0  0  0  0
    2.0894   -0.0398   -0.3902 O   0  0  0  0  0  0  0  0  0  0  0  0
    3.0353   -1.6563    1.0260 C   0  0  0  0  0  0  0  0  0  0  0  0
    4.2366   -1.5784    0.2515 C   0  0  0  0  0  0  0  0  0  0  0  0
    4.3815   -1.8829   -1.1451 C   0  0  0  0  0  0  0  0  0  0  0  0
    3.6234   -1.1464   -2.1786 C   0  0  0  0  0  0  0  0  0  0  0  0
    5.8138   -2.0826   -1.5943 C   0  0  0  0  0  0  0  0  0  0  0  0
  1  2  1  0
  2  3  1  0
  2  4  1  0
  4  5  1  0
  5  6  1  0
  6  7  1  0
  7  8  2  0
  7  9  1  0
  9 10  1  6
 10 11  1  0
 11 12  1  0
 12 13  1  0
 13 14  1  0
 14 15  1  0
 14 16  2  0
  9 17  1  0
 17 18  1  0
 18 19  2  0
 18 20  1  0
 20 21  1  0
 21 22  1  0
 22 23  1  0
 22 24  1  0
M  CHG  1  16   1
M  END

