
     RDKit          3D

 26 26  0  0  0  0  0  0  0  0999 V2000
   -4.7838   -3.6069    1.5298 C   0  0  0  0  0  0  0  0  0  0  0  0
   -5.6579   -2.9105    0.5663 C   0  0  0  0  0  0  0  0  0  0  0  0
   -4.7839   -2.2427   -0.6117 C   0  0  2  0  0  0  0  0  0  0  0  0
   -4.1413   -3.6646   -1.1116 C   0  0  0  0  0  0  0  0  0  0  0  0
   -3.5229   -1.8562    0.3158 C   0  0  0  0  0  0  0  0  0  0  0  0
   -2.5699   -1.1979   -0.6418 C   0  0  0  0  0  0  0  0  0  0  0  0
   -2.8730   -1.0508   -1.8650 O   0  0  0  0  0  0  0  0  0  0  0  0
   -1.3017   -0.7156   -0.2289 N   0  0  0  0  0  0  0  0  0  0  0  0
   -0.5039   -0.0773   -1.3927 C   0  0  1  0  0  0  0  0  0  0  0  0
   -1.5212    1.1788   -1.5840 C   0  0  0  0  0  0  0  0  0  0  0  0
   -1.5796    1.9442   -0.3390 C   0  0  0  0  0  0  0  0  0  0  0  0
   -2.3883    1.8415    0.7638 C   0  0  0  0  0  0  0  0  0  0  0  0
   -2.0794    2.7769    1.6766 N   0  0  0  0  0  0  0  0  0  0  0  0
   -1.0476    3.4888    1.1340 C   0  0  0  0  0  0  0  0  0  0  0  0
   -0.7584    2.9777   -0.0754 N   0  0  0  0  0  0  0  0  0  0  0  0
    0.5661    0.6783   -0.5501 C   0  0  0  0  0  0  0  0  0  0  0  0
    0.6003    0.6352    0.6599 O   0  0  0  0  0  0  0  0  0  0  0  0
    1.4785    1.4065   -1.3130 N   0  0  0  0  0  0  0  0  0  0  0  0
    2.5717    2.1930   -0.8689 C   0  0  0  0  0  0  0  0  0  0  0  0
    3.6518    1.4824   -0.1210 C   0  0  0  0  0  0  0  0  0  0  0  0
    3.2404    0.8275    1.1131 C   0  0  0  0  0  0  0  0  0  0  0  0
    4.1985    0.1053    1.9222 C   0  0  0  0  0  0  0  0  0  0  0  0
    4.9182   -0.9895    1.4326 N   0  0  0  0  0  0  0  0  0  0  0  0
    5.8196   -1.0098    0.3430 C   0  0  0  0  0  0  0  0  0  0  0  0
    6.4298   -2.2750    0.0436 N   0  0  0  0  0  0  0  0  0  0  0  0
    6.0378    0.0611   -0.2979 N   0  0  0  0  0  4  0  0  0  0  0  0
  1  2  1  0
  2  3  1  0
  3  4  1  6
  3  5  1  0
  5  6  1  0
  6  7  2  0
  6  8  1  0
  8  9  1  0
  9 10  1  1
 10 11  1  0
 11 12  2  0
 12 13  1  0
 13 14  1  0
 14 15  2  0
  9 16  1  0
 16 17  2  0
 16 18  1  0
 18 19  1  0
 19 20  1  0
 20 21  1  0
 21 22  1  0
 22 23  1  0
 23 24  1  0
 24 25  1  0
 24 26  2  0
 15 11  1  0
M  CHG  1  26   1
M  END

