
     RDKit          3D

 50 53  0  0  0  0  0  0  0  0999 V2000
    3.2340   -1.6685   -2.4096 C   0  0  0  0  0  0  0  0  0  0  0  0
    2.7078   -0.2833   -2.2288 C   0  0  0  0  0  0  0  0  0  0  0  0
    1.4592   -0.4862   -1.1965 C   0  0  2  0  0  0  0  0  0  0  0  0
    1.0584    1.0693   -1.1268 C   0  0  0  0  0  0  0  0  0  0  0  0
    2.4142   -0.6497    0.1611 C   0  0  2  0  0  0  0  0  0  0  0  0
    1.3377   -0.8649    1.1967 N   0  0  0  0  0  0  0  0  0  0  0  0
   -0.0085   -1.1775    0.8466 C   0  0  0  0  0  0  0  0  0  0  0  0
   -0.2656   -1.2672   -0.3732 O   0  0  0  0  0  0  0  0  0  0  0  0
   -1.0348   -1.3779    1.8737 C   0  0  0  0  0  0  0  0  0  0  0  0
   -2.3589   -1.7157    1.3352 C   0  0  0  0  0  0  0  0  0  0  0  0
   -2.9499   -0.6754    0.4858 C   0  0  0  0  0  0  0  0  0  0  0  0
   -3.7069    0.2995    1.1202 C   0  0  0  0  0  0  0  0  0  0  0  0
   -4.3164    1.2723    0.3849 C   0  0  0  0  0  0  0  0  0  0  0  0
   -4.1844    1.2930   -0.9735 C   0  0  0  0  0  0  0  0  0  0  0  0
   -3.4292    0.3220   -1.6163 C   0  0  0  0  0  0  0  0  0  0  0  0
   -2.8056   -0.6748   -0.8803 C   0  0  0  0  0  0  0  0  0  0  0  0
    2.8352    0.8042    0.4956 C   0  0  0  0  0  0  0  0  0  0  0  0
    2.3027    1.2612    1.5250 O   0  0  0  0  0  0  0  0  0  0  0  0
    3.7060    1.5928   -0.2138 N   0  0  0  0  0  0  0  0  0  0  0  0
    4.0049    2.9267    0.1913 C   0  0  0  0  0  0  0  0  0  0  0  0
    5.0034   -1.2746    0.7691 C   0  0  0  0  0  0  0  0  0  0  0  0
    5.3122   -0.8752   -0.8045 C   0  0  2  0  0  0  0  0  0  0  0  0
    4.6271    0.6160   -0.6982 C   0  0  0  0  0  0  0  0  0  0  0  0
    5.3964    1.3019    0.3202 N   0  0  0  0  0  0  0  0  0  0  0  0
    5.0584    1.2480    1.5966 N   0  0  0  0  0  0  0  0  0  0  0  0
    5.9354    1.9614    2.2808 C   0  0  0  0  0  0  0  0  0  0  0  0
    6.8071    2.4471    1.4037 N   0  0  0  0  0  0  0  0  0  0  0  0
    6.4707    2.0382    0.1991 N   0  0  0  0  0  0  0  0  0  0  0  0
    4.0440   -1.5930   -1.3477 N   0  0  0  0  0  0  0  0  0  0  0  0
    2.7828   -1.2096   -0.8156 C   0  0  0  0  0  0  0  0  0  0  0  0
    2.6822   -0.2575    0.1300 N   0  0  0  0  0  0  0  0  0  0  0  0
    1.5077    0.1314    0.6567 C   0  0  0  0  0  0  0  0  0  0  0  0
    0.3038   -0.4486    0.2373 C   0  0  0  0  0  0  0  0  0  0  0  0
   -0.9024   -0.0886    0.7389 C   0  0  0  0  0  0  0  0  0  0  0  0
   -2.1126   -0.7187    0.2710 C   0  0  0  0  0  0  0  0  0  0  0  0
   -3.2191   -0.2779    0.8429 O   0  0  0  0  0  0  0  0  0  0  0  0
   -4.3214    0.3729    0.4965 C   0  0  0  0  0  0  0  0  0  0  0  0
   -4.4373    1.6626    1.0976 C   0  0  0  0  0  0  0  0  0  0  0  0
   -5.5052    2.4607    0.8526 C   0  0  0  0  0  0  0  0  0  0  0  0
   -6.5320    2.0919    0.0244 C   0  0  0  0  0  0  0  0  0  0  0  0
   -7.5621    2.9433   -0.1700 F   0  0  0  0  0  0  0  0  0  0  0  0
   -6.4288    0.8621   -0.5524 C   0  0  0  0  0  0  0  0  0  0  0  0
   -5.3424   -0.0051   -0.3313 C   0  0  0  0  0  0  0  0  0  0  0  0
   -5.4208   -1.1977   -0.9566 F   0  0  0  0  0  0  0  0  0  0  0  0
   -1.9532   -1.6820   -0.6908 C   0  0  0  0  0  0  0  0  0  0  0  0
   -2.9464   -2.3199   -1.1862 O   0  0  0  0  0  0  0  0  0  0  0  0
   -0.7129   -1.9839   -1.1405 N   0  0  0  0  0  0  0  0  0  0  0  0
   -0.5948   -3.0183   -2.1683 C   0  0  0  0  0  0  0  0  0  0  0  0
    0.4271   -1.4199   -0.7298 C   0  0  0  0  0  0  0  0  0  0  0  0
    1.6330   -1.7669   -1.2192 N   0  0  0  0  0  0  0  0  0  0  0  0
  1  2  1  0
  2  3  1  0
  3  4  1  1
  3  5  1  0
  5  6  1  1
  6  7  1  0
  7  8  2  0
  7  9  1  0
  9 10  1  0
 10 11  1  0
 11 12  2  0
 12 13  1  0
 13 14  2  0
 14 15  1  0
 15 16  2  0
  5 17  1  0
 17 18  2  0
 17 19  1  0
 19 20  1  0
 22 21  1  1
 22 23  1  0
 23 24  1  0
 24 25  1  0
 25 26  2  0
 26 27  1  0
 27 28  2  0
 22 29  1  0
 29 30  1  0
 30 31  2  0
 31 32  1  0
 32 33  2  0
 33 34  1  0
 34 35  2  0
 35 36  1  0
 36 37  1  0
 37 38  2  0
 38 39  1  0
 39 40  2  0
 40 41  1  0
 40 42  1  0
 42 43  2  0
 43 44  1  0
 35 45  1  0
 45 46  2  0
 45 47  1  0
 47 48  1  0
 47 49  1  0
 49 50  2  0
 16 11  1  0
 28 24  1  0
 50 30  1  0
 49 33  1  0
 43 37  1  0
M  END

