
     RDKit          3D

 51 53  0  0  0  0  0  0  0  0999 V2000
   -2.5538    4.4177    0.5582 C   0  0  0  0  0  0  0  0  0  0  0  0
   -2.2555    3.2548   -0.3479 C   0  0  0  0  0  0  0  0  0  0  0  0
   -3.3875    2.8700   -1.2186 C   0  0  0  0  0  0  0  0  0  0  0  0
   -1.5105    2.1402    0.3121 C   0  0  0  0  0  0  0  0  0  0  0  0
   -1.2354    1.0381   -0.5624 N   0  0  0  0  0  0  0  0  0  0  0  0
   -0.4883   -0.0436    0.0434 C   0  0  0  0  0  0  0  0  0  0  0  0
   -0.0946   -0.0906    1.1915 O   0  0  0  0  0  0  0  0  0  0  0  0
   -0.1932   -1.2517   -0.9859 C   0  0  2  0  0  0  0  0  0  0  0  0
   -1.2027   -2.3390   -0.1659 C   0  0  0  0  0  0  0  0  0  0  0  0
   -2.5179   -1.6005   -0.2735 C   0  0  0  0  0  0  0  0  0  0  0  0
   -3.5324   -2.4289    0.4044 C   0  0  0  0  0  0  0  0  0  0  0  0
   -3.9992   -2.0047    1.6451 O   0  0  0  0  0  1  0  0  0  0  0  0
   -4.0115   -3.4965   -0.0531 O   0  0  0  0  0  0  0  0  0  0  0  0
    1.0818   -1.8012   -0.2129 N   0  0  0  0  0  0  0  0  0  0  0  0
    2.0821   -0.8168   -0.0079 C   0  0  0  0  0  0  0  0  0  0  0  0
    1.8505    0.3495   -0.4498 O   0  0  0  0  0  0  0  0  0  0  0  0
    3.3270   -1.1699    0.6949 C   0  0  0  0  0  0  0  0  0  0  0  0
    4.2278   -0.0180    0.9960 C   0  0  0  0  0  0  0  0  0  0  0  0
    4.6682    0.7524   -0.1599 C   0  0  0  0  0  0  0  0  0  0  0  0
    5.6786    0.3721   -1.0498 O   0  0  0  0  0  1  0  0  0  0  0  0
    4.0664    1.8666   -0.3578 O   0  0  0  0  0  0  0  0  0  0  0  0
    4.2280   -0.3422    0.6469 C   0  0  0  0  0  0  0  0  0  0  0  0
    4.6811   -0.9544   -0.8429 C   0  0  2  0  0  0  0  0  0  0  0  0
    5.7206    0.2983   -1.1525 C   0  0  0  0  0  0  0  0  0  0  0  0
    6.6860    0.2431   -0.0747 N   0  0  0  0  0  0  0  0  0  0  0  0
    7.8014   -0.4606   -0.1423 N   0  0  0  0  0  0  0  0  0  0  0  0
    8.4922   -0.3118    1.0154 C   0  0  0  0  0  0  0  0  0  0  0  0
    7.7765    0.4959    1.7892 N   0  0  0  0  0  0  0  0  0  0  0  0
    6.7027    0.8135    1.1160 N   0  0  0  0  0  0  0  0  0  0  0  0
    3.4810   -0.2311   -1.5818 N   0  0  0  0  0  0  0  0  0  0  0  0
    2.1940   -0.6320   -1.0979 C   0  0  0  0  0  0  0  0  0  0  0  0
    2.0566   -1.5376   -0.1102 N   0  0  0  0  0  0  0  0  0  0  0  0
    0.8532   -1.9192    0.3498 C   0  0  0  0  0  0  0  0  0  0  0  0
   -0.2925   -1.3817   -0.1898 C   0  0  0  0  0  0  0  0  0  0  0  0
   -1.5547   -1.7290    0.2352 C   0  0  0  0  0  0  0  0  0  0  0  0
   -2.6489   -1.1364   -0.3660 C   0  0  0  0  0  0  0  0  0  0  0  0
   -3.9196   -1.4647    0.0385 O   0  0  0  0  0  0  0  0  0  0  0  0
   -4.8223   -0.5419    0.5540 C   0  0  0  0  0  0  0  0  0  0  0  0
   -6.0287   -0.2881   -0.0271 C   0  0  0  0  0  0  0  0  0  0  0  0
   -6.9124    0.6365    0.5050 C   0  0  0  0  0  0  0  0  0  0  0  0
   -6.5785    1.3211    1.6443 C   0  0  0  0  0  0  0  0  0  0  0  0
   -7.4214    2.2285    2.1849 F   0  0  0  0  0  0  0  0  0  0  0  0
   -5.3574    1.0819    2.2552 C   0  0  0  0  0  0  0  0  0  0  0  0
   -4.4881    0.1441    1.6952 C   0  0  0  0  0  0  0  0  0  0  0  0
   -3.2987   -0.0845    2.2960 F   0  0  0  0  0  0  0  0  0  0  0  0
   -2.4804   -0.2087   -1.3791 C   0  0  0  0  0  0  0  0  0  0  0  0
   -3.4942    0.3202   -1.9142 O   0  0  0  0  0  0  0  0  0  0  0  0
   -1.2485    0.1237   -1.7866 N   0  0  0  0  0  0  0  0  0  0  0  0
   -1.0540    1.0909   -2.8434 C   0  0  0  0  0  0  0  0  0  0  0  0
   -0.1543   -0.4541   -1.2014 C   0  0  0  0  0  0  0  0  0  0  0  0
    1.0810   -0.1157   -1.6157 N   0  0  0  0  0  0  0  0  0  0  0  0
  1  2  1  0
  2  3  1  0
  2  4  1  0
  4  5  1  0
  5  6  1  0
  6  7  2  0
  6  8  1  0
  8  9  1  1
  9 10  1  0
 10 11  1  0
 11 12  1  0
 11 13  2  0
  8 14  1  0
 14 15  1  0
 15 16  2  0
 15 17  1  0
 17 18  1  0
 18 19  1  0
 19 20  1  0
 19 21  2  0
 23 22  1  1
 23 24  1  0
 24 25  1  0
 25 26  1  0
 26 27  2  0
 27 28  1  0
 28 29  2  0
 23 30  1  0
 30 31  1  0
 31 32  2  0
 32 33  1  0
 33 34  2  0
 34 35  1  0
 35 36  2  0
 36 37  1  0
 37 38  1  0
 38 39  2  0
 39 40  1  0
 40 41  2  0
 41 42  1  0
 41 43  1  0
 43 44  2  0
 44 45  1  0
 36 46  1  0
 46 47  2  0
 46 48  1  0
 48 49  1  0
 48 50  1  0
 50 51  2  0
 29 25  1  0
 51 31  1  0
 50 34  1  0
 44 38  1  0
M  RAD  2  12   2  20   2
M  END

