
     RDKit          3D

 24 24  0  0  0  0  0  0  0  0999 V2000
    0.3062    4.1707   -0.4442 C   0  0  0  0  0  0  0  0  0  0  0  0
    0.6505    3.5005   -2.0951 S   0  0  0  0  0  0  0  0  0  0  0  0
   -0.3680    1.9829   -2.2741 C   0  0  0  0  0  0  0  0  0  0  0  0
    0.1172    0.9227   -1.2931 C   0  0  0  0  0  0  0  0  0  0  0  0
   -0.0791    1.6363    0.1863 C   0  0  2  0  0  0  0  0  0  0  0  0
    0.4528    0.4339    1.0220 N   0  0  0  0  0  0  0  0  0  0  0  0
    1.7865    0.0669    0.9977 C   0  0  0  0  0  0  0  0  0  0  0  0
    2.6116    0.7057    0.2948 O   0  0  0  0  0  0  0  0  0  0  0  0
    2.2594   -1.0657    1.7875 C   0  0  0  0  0  0  0  0  0  0  0  0
    3.6838   -1.3723    1.8064 C   0  0  0  0  0  0  0  0  0  0  0  0
    4.2997   -1.6934    0.5195 C   0  0  0  0  0  0  0  0  0  0  0  0
    4.4312   -2.9001   -0.1263 C   0  0  0  0  0  0  0  0  0  0  0  0
    5.0962   -2.7842   -1.2684 N   0  0  0  0  0  0  0  0  0  0  0  0
    5.4157   -1.4628   -1.3964 C   0  0  0  0  0  0  0  0  0  0  0  0
    4.9184   -0.8307   -0.2978 N   0  0  0  0  0  0  0  0  0  0  0  0
   -1.6308    1.3129    0.3190 C   0  0  0  0  0  0  0  0  0  0  0  0
   -1.9478    0.3480    1.0386 O   0  0  0  0  0  0  0  0  0  0  0  0
   -2.5755    2.0900   -0.3536 N   0  0  0  0  0  0  0  0  0  0  0  0
   -3.9828    1.6951   -0.1401 C   0  0  0  0  0  0  0  0  0  0  0  0
   -4.1211    0.2330   -0.5795 C   0  0  0  0  0  0  0  0  0  0  0  0
   -5.5403   -0.2009   -0.3548 C   0  0  0  0  0  0  0  0  0  0  0  0
   -5.7537   -1.6345   -0.7316 C   0  0  0  0  0  0  0  0  0  0  0  0
   -4.9009   -2.6033    0.0591 C   0  0  0  0  0  0  0  0  0  0  0  0
   -5.1295   -2.5508    1.4776 N   0  0  0  0  0  4  0  0  0  0  0  0
  1  2  1  0
  2  3  1  0
  3  4  1  0
  5  4  1  6
  5  6  1  0
  6  7  1  0
  7  8  2  0
  7  9  1  0
  9 10  1  0
 10 11  1  0
 11 12  2  0
 12 13  1  0
 13 14  1  0
 14 15  2  0
  5 16  1  0
 16 17  2  0
 16 18  1  0
 18 19  1  0
 19 20  1  0
 20 21  1  0
 21 22  1  0
 22 23  1  0
 23 24  1  0
 15 11  1  0
M  CHG  1  24   1
M  END

