
     RDKit          3D

 55 57  0  0  0  0  0  0  0  0999 V2000
   -1.1407   -4.5876   -0.1486 C   0  0  0  0  0  0  0  0  0  0  0  0
   -0.8242   -3.1290   -0.0703 C   0  0  0  0  0  0  0  0  0  0  0  0
   -1.0866   -2.4631   -1.3391 C   0  0  0  0  0  0  0  0  0  0  0  0
   -1.1883   -2.5698    1.2044 C   0  0  0  0  0  0  0  0  0  0  0  0
   -0.8210   -0.9852    1.2562 C   0  0  2  0  0  0  0  0  0  0  0  0
   -1.7397   -0.5836    0.0667 N   0  0  0  0  0  0  0  0  0  0  0  0
   -3.0771   -0.2198    0.5053 C   0  0  0  0  0  0  0  0  0  0  0  0
   -3.4416   -0.2282    1.6944 O   0  0  0  0  0  0  0  0  0  0  0  0
   -4.0846    0.1952   -0.5267 C   0  0  0  0  0  0  0  0  0  0  0  0
   -5.4034    0.5229    0.1227 C   0  0  0  0  0  0  0  0  0  0  0  0
   -5.2121    1.6781    1.1132 C   0  0  0  0  0  0  0  0  0  0  0  0
   -4.6637    2.8106    0.3131 C   0  0  0  0  0  0  0  0  0  0  0  0
   -5.2591    4.0492    0.3548 O   0  0  0  0  0  1  0  0  0  0  0  0
   -3.6521    2.5676   -0.3837 O   0  0  0  0  0  0  0  0  0  0  0  0
    0.5283   -1.0811    0.4882 C   0  0  0  0  0  0  0  0  0  0  0  0
    0.6967   -0.3950   -0.5238 O   0  0  0  0  0  0  0  0  0  0  0  0
    1.4977   -1.9484    0.9882 N   0  0  0  0  0  0  0  0  0  0  0  0
    2.8060   -2.1788    0.4128 C   0  0  0  0  0  0  0  0  0  0  0  0
    3.5655   -0.8638    0.4074 C   0  0  0  0  0  0  0  0  0  0  0  0
    4.9606   -1.0689   -0.1908 C   0  0  0  0  0  0  0  0  0  0  0  0
    5.6787    0.2372   -0.1562 C   0  0  0  0  0  0  0  0  0  0  0  0
    4.9643    1.2572   -0.9316 N   0  0  0  0  0  0  0  0  0  0  0  0
    5.4931    2.5722   -1.0083 C   0  0  0  0  0  0  0  0  0  0  0  0
    4.8185    3.5994   -1.7575 N   0  0  0  0  0  0  0  0  0  0  0  0
    6.5846    2.8127   -0.3893 N   0  0  0  0  0  4  0  0  0  0  0  0
    5.5420    1.3424   -1.6965 C   0  0  0  0  0  0  0  0  0  0  0  0
    4.6134    0.7754   -0.4329 C   0  0  2  0  0  0  0  0  0  0  0  0
    5.0045   -0.8054   -0.7641 C   0  0  0  0  0  0  0  0  0  0  0  0
    6.4517   -0.7788   -0.6137 N   0  0  0  0  0  0  0  0  0  0  0  0
    7.1898   -0.9905    0.4424 N   0  0  0  0  0  0  0  0  0  0  0  0
    8.4785   -0.8571    0.0990 C   0  0  0  0  0  0  0  0  0  0  0  0
    8.5089   -0.5566   -1.2025 N   0  0  0  0  0  0  0  0  0  0  0  0
    7.2557   -0.5156   -1.6110 N   0  0  0  0  0  0  0  0  0  0  0  0
    3.3015    0.7190   -1.3255 N   0  0  0  0  0  0  0  0  0  0  0  0
    2.1596    0.2551   -0.6107 C   0  0  0  0  0  0  0  0  0  0  0  0
    2.1746   -0.1010    0.6818 N   0  0  0  0  0  0  0  0  0  0  0  0
    1.0917   -0.5382    1.3497 C   0  0  0  0  0  0  0  0  0  0  0  0
   -0.0938   -0.6244    0.6699 C   0  0  0  0  0  0  0  0  0  0  0  0
   -1.2695   -1.0690    1.2866 C   0  0  0  0  0  0  0  0  0  0  0  0
   -2.4181   -1.1238    0.5250 C   0  0  0  0  0  0  0  0  0  0  0  0
   -3.6297   -1.5548    1.0628 O   0  0  0  0  0  0  0  0  0  0  0  0
   -4.7550   -0.7456    1.0955 C   0  0  0  0  0  0  0  0  0  0  0  0
   -5.9354   -1.0848    0.4676 C   0  0  0  0  0  0  0  0  0  0  0  0
   -7.0380   -0.2526    0.5215 C   0  0  0  0  0  0  0  0  0  0  0  0
   -7.0069    0.9464    1.2013 C   0  0  0  0  0  0  0  0  0  0  0  0
   -8.1085    1.7454    1.2371 F   0  0  0  0  0  0  0  0  0  0  0  0
   -5.8255    1.2845    1.8289 C   0  0  0  0  0  0  0  0  0  0  0  0
   -4.7201    0.4606    1.7807 C   0  0  0  0  0  0  0  0  0  0  0  0
   -3.5492    0.7821    2.3951 F   0  0  0  0  0  0  0  0  0  0  0  0
   -2.3621   -0.7433   -0.7961 C   0  0  0  0  0  0  0  0  0  0  0  0
   -3.4260   -0.8044   -1.4649 O   0  0  0  0  0  0  0  0  0  0  0  0
   -1.2440   -0.3176   -1.3933 N   0  0  0  0  0  0  0  0  0  0  0  0
   -1.2914    0.0606   -2.7926 C   0  0  0  0  0  0  0  0  0  0  0  0
   -0.1098   -0.2583   -0.6595 C   0  0  0  0  0  0  0  0  0  0  0  0
    1.0111    0.1750   -1.2817 N   0  0  0  0  0  0  0  0  0  0  0  0
  1  2  1  0
  2  3  1  0
  2  4  1  0
  5  4  1  6
  5  6  1  0
  6  7  1  0
  7  8  2  0
  7  9  1  0
  9 10  1  0
 10 11  1  0
 11 12  1  0
 12 13  1  0
 12 14  2  0
  5 15  1  0
 15 16  2  0
 15 17  1  0
 17 18  1  0
 18 19  1  0
 19 20  1  0
 20 21  1  0
 21 22  1  0
 22 23  1  0
 23 24  1  0
 23 25  2  0
 27 26  1  6
 27 28  1  0
 28 29  1  0
 29 30  1  0
 30 31  2  0
 31 32  1  0
 32 33  2  0
 27 34  1  0
 34 35  1  0
 35 36  2  0
 36 37  1  0
 37 38  2  0
 38 39  1  0
 39 40  2  0
 40 41  1  0
 41 42  1  0
 42 43  2  0
 43 44  1  0
 44 45  2  0
 45 46  1  0
 45 47  1  0
 47 48  2  0
 48 49  1  0
 40 50  1  0
 50 51  2  0
 50 52  1  0
 52 53  1  0
 52 54  1  0
 54 55  2  0
 33 29  1  0
 55 35  1  0
 54 38  1  0
 48 42  1  0
M  CHG  1  25   1
M  RAD  1  13   2
M  END

