
     RDKit          3D

 16 15  0  0  0  0  0  0  0  0999 V2000
   -2.9882    2.5086   -0.3671 C   0  0  0  0  0  0  0  0  0  0  0  0
   -3.1351    1.0206   -0.3764 C   0  0  0  0  0  0  0  0  0  0  0  0
   -4.5247    0.6478   -0.8260 C   0  0  0  0  0  0  0  0  0  0  0  0
   -2.7931    0.4124    0.9508 C   0  0  0  0  0  0  0  0  0  0  0  0
   -2.9643   -1.0911    0.8659 C   0  0  0  0  0  0  0  0  0  0  0  0
   -2.0931   -1.6573   -0.1503 N   0  0  0  0  0  0  0  0  0  0  0  0
   -0.6741   -1.4919   -0.0327 C   0  0  0  0  0  0  0  0  0  0  0  0
   -0.2257   -0.8559    0.9559 O   0  0  0  0  0  0  0  0  0  0  0  0
    0.2200   -2.0639   -1.0607 C   0  0  0  0  0  0  0  0  0  0  0  0
    1.5769   -1.7334   -0.6685 N   0  0  0  0  0  0  0  0  0  0  0  0
    2.0271   -0.3936   -0.5197 C   0  0  0  0  0  0  0  0  0  0  0  0
    1.2246    0.5479   -0.7348 O   0  0  0  0  0  0  0  0  0  0  0  0
    3.4327   -0.2247   -0.1158 C   0  0  0  0  0  0  0  0  0  0  0  0
    3.6654    1.4276   -0.0246 C   0  0  1  0  0  0  0  0  0  0  0  0
    2.4905    1.6816    1.1536 C   0  0  0  0  0  0  0  0  0  0  0  0
    4.7611    1.2653    1.0652 O   0  0  0  0  0  0  0  0  0  0  0  0
  1  2  1  0
  2  3  1  0
  2  4  1  0
  4  5  1  0
  5  6  1  0
  6  7  1  0
  7  8  2  0
  7  9  1  0
  9 10  1  0
 10 11  1  0
 11 12  2  0
 11 13  1  0
 13 14  1  0
 14 15  1  1
 14 16  1  0
M  END

