
     RDKit          3D

 51 54  0  0  0  0  0  0  0  0999 V2000
    4.7045    1.9448   -0.5967 C   0  0  0  0  0  0  0  0  0  0  0  0
    4.7513    1.7773    0.9360 C   0  0  0  0  0  0  0  0  0  0  0  0
    3.8764    0.6734    1.1729 N   0  0  0  0  0  0  0  0  0  0  0  0
    3.9394   -0.6300    0.7257 C   0  0  0  0  0  0  0  0  0  0  0  0
    4.7996   -1.0645    0.0094 O   0  0  0  0  0  0  0  0  0  0  0  0
    2.7586   -1.5749    1.2074 C   0  0  1  0  0  0  0  0  0  0  0  0
    1.7181   -0.7584    0.3061 N   0  0  0  0  0  0  0  0  0  0  0  0
    0.4250   -0.5483    0.8776 C   0  0  0  0  0  0  0  0  0  0  0  0
    0.2409   -1.1015    1.9925 O   0  0  0  0  0  0  0  0  0  0  0  0
   -0.4294    0.2759    0.0899 C   0  0  0  0  0  0  0  0  0  0  0  0
   -1.5787    0.7866    0.0223 C   0  0  0  0  0  0  0  0  0  0  0  0
   -2.9529    0.9789   -0.0763 C   0  0  0  0  0  0  0  0  0  0  0  0
   -3.7942    0.9612    1.0517 C   0  0  0  0  0  0  0  0  0  0  0  0
   -5.1176    1.1920    0.9541 C   0  0  0  0  0  0  0  0  0  0  0  0
   -5.7435    1.4662   -0.2438 C   0  0  0  0  0  0  0  0  0  0  0  0
   -7.1237    1.7239   -0.3887 O   0  0  0  0  0  0  0  0  0  0  0  0
   -4.9333    1.4785   -1.3856 C   0  0  0  0  0  0  0  0  0  0  0  0
   -3.6119    1.2484   -1.2788 C   0  0  0  0  0  0  0  0  0  0  0  0
    3.0171   -2.7260    0.0563 C   0  0  0  0  0  0  0  0  0  0  0  0
    2.8594   -2.2001   -1.2750 C   0  0  0  0  0  0  0  0  0  0  0  0
    2.1950   -3.9035    0.4201 C   0  0  0  0  0  0  0  0  0  0  0  0
    3.4106    1.2791    1.5623 C   0  0  0  0  0  0  0  0  0  0  0  0
    4.1814   -0.0381    2.2087 C   0  0  2  0  0  0  0  0  0  0  0  0
    5.6900    0.5007    1.8164 C   0  0  0  0  0  0  0  0  0  0  0  0
    5.7587    0.6610    0.4138 N   0  0  0  0  0  0  0  0  0  0  0  0
    5.4620    1.7573   -0.2580 N   0  0  0  0  0  0  0  0  0  0  0  0
    5.6467    1.5326   -1.5630 C   0  0  0  0  0  0  0  0  0  0  0  0
    6.0661    0.2602   -1.6578 N   0  0  0  0  0  0  0  0  0  0  0  0
    6.1311   -0.2584   -0.4622 N   0  0  0  0  0  0  0  0  0  0  0  0
    4.0056   -0.9113    0.9083 N   0  0  0  0  0  0  0  0  0  0  0  0
    2.6824   -1.1322    0.5181 C   0  0  0  0  0  0  0  0  0  0  0  0
    2.4379   -1.8641   -0.5767 N   0  0  0  0  0  0  0  0  0  0  0  0
    1.1955   -2.1223   -1.0183 C   0  0  0  0  0  0  0  0  0  0  0  0
    0.1161   -1.6205   -0.3274 C   0  0  0  0  0  0  0  0  0  0  0  0
   -1.1903   -1.8449   -0.7220 C   0  0  0  0  0  0  0  0  0  0  0  0
   -2.2413   -1.3047    0.0270 C   0  0  0  0  0  0  0  0  0  0  0  0
   -3.5609   -1.4942   -0.3165 O   0  0  0  0  0  0  0  0  0  0  0  0
   -4.4473   -0.4698   -0.6145 C   0  0  0  0  0  0  0  0  0  0  0  0
   -5.6118   -0.2215    0.0796 C   0  0  0  0  0  0  0  0  0  0  0  0
   -6.4715    0.8039   -0.2410 C   0  0  0  0  0  0  0  0  0  0  0  0
   -6.1999    1.6464   -1.2934 C   0  0  0  0  0  0  0  0  0  0  0  0
   -7.0463    2.6691   -1.6220 F   0  0  0  0  0  0  0  0  0  0  0  0
   -5.0397    1.4181   -2.0038 C   0  0  0  0  0  0  0  0  0  0  0  0
   -4.1814    0.3817   -1.6713 C   0  0  0  0  0  0  0  0  0  0  0  0
   -3.0561    0.1880   -2.3877 F   0  0  0  0  0  0  0  0  0  0  0  0
   -1.9091   -0.5621    1.1418 C   0  0  0  0  0  0  0  0  0  0  0  0
   -2.8719   -0.0709    1.8225 O   0  0  0  0  0  0  0  0  0  0  0  0
   -0.6388   -0.3417    1.5286 N   0  0  0  0  0  0  0  0  0  0  0  0
   -0.3618    0.4469    2.7088 C   0  0  0  0  0  0  0  0  0  0  0  0
    0.3809   -0.8645    0.8039 C   0  0  0  0  0  0  0  0  0  0  0  0
    1.6633   -0.6412    1.1957 N   0  0  0  0  0  0  0  0  0  0  0  0
  1  2  1  0
  2  3  1  0
  3  4  1  0
  4  5  2  0
  4  6  1  0
  6  7  1  6
  7  8  1  0
  8  9  2  0
  8 10  1  0
 10 11  1  0
 11 12  1  0
 12 13  2  0
 13 14  1  0
 14 15  2  0
 15 16  1  0
 15 17  1  0
 17 18  2  0
  6 19  1  0
 19 20  1  0
 19 21  1  0
 23 22  1  6
 23 24  1  0
 24 25  1  0
 25 26  1  0
 26 27  2  0
 27 28  1  0
 28 29  2  0
 23 30  1  0
 30 31  1  0
 31 32  2  0
 32 33  1  0
 33 34  2  0
 34 35  1  0
 35 36  2  0
 36 37  1  0
 37 38  1  0
 38 39  2  0
 39 40  1  0
 40 41  2  0
 41 42  1  0
 41 43  1  0
 43 44  2  0
 44 45  1  0
 36 46  1  0
 46 47  2  0
 46 48  1  0
 48 49  1  0
 48 50  1  0
 50 51  2  0
 18 12  1  0
 29 25  1  0
 51 31  1  0
 50 34  1  0
 44 38  1  0
M  END

