
     RDKit          3D

 21 21  0  0  0  0  0  0  0  0999 V2000
    4.0088    1.0889   -0.2608 O   0  0  0  0  0  1  0  0  0  0  0  0
    4.7340   -0.0211    0.0859 C   0  0  0  0  0  0  0  0  0  0  0  0
    5.7780    0.1234    0.8223 O   0  0  0  0  0  0  0  0  0  0  0  0
    4.3879   -1.4070   -0.3398 C   0  0  0  0  0  0  0  0  0  0  0  0
    3.1312   -1.3415   -1.1803 C   0  0  0  0  0  0  0  0  0  0  0  0
    1.9973   -0.7763   -0.4082 C   0  0  0  0  0  0  0  0  0  0  0  0
    2.1682   -0.4278    0.8286 O   0  0  0  0  0  0  0  0  0  0  0  0
    0.7451   -0.6070   -0.9777 N   0  0  0  0  0  0  0  0  0  0  0  0
   -0.3563    0.0009    0.0174 C   0  0  1  0  0  0  0  0  0  0  0  0
   -0.5953    1.3226   -1.0199 C   0  0  0  0  0  0  0  0  0  0  0  0
   -1.6436    2.1483   -0.3038 C   0  0  0  0  0  0  0  0  0  0  0  0
   -1.1924    2.5747    1.0283 C   0  0  0  0  0  0  0  0  0  0  0  0
    0.0301    2.1884    1.5397 O   0  0  0  0  0  1  0  0  0  0  0  0
   -1.9429    3.3097    1.7112 O   0  0  0  0  0  0  0  0  0  0  0  0
   -1.6007   -0.8229   -0.5795 C   0  0  0  0  0  0  0  0  0  0  0  0
   -1.4943   -1.3800   -1.6881 O   0  0  0  0  0  0  0  0  0  0  0  0
   -2.7653   -0.8687    0.2192 N   0  0  0  0  0  0  0  0  0  0  0  0
   -2.9496   -0.2794    1.5261 C   0  0  0  0  0  0  0  0  0  0  0  0
   -3.9215   -1.1916    2.2547 C   0  0  0  0  0  0  0  0  0  0  0  0
   -4.5166   -2.1042    1.2032 C   0  0  0  0  0  0  0  0  0  0  0  0
   -4.0019   -1.5293   -0.1155 C   0  0  0  0  0  0  0  0  0  0  0  0
  1  2  1  0
  2  3  2  0
  2  4  1  0
  4  5  1  0
  5  6  1  0
  6  7  2  0
  6  8  1  0
  8  9  1  0
  9 10  1  6
 10 11  1  0
 11 12  1  0
 12 13  1  0
 12 14  2  0
  9 15  1  0
 15 16  2  0
 15 17  1  0
 17 18  1  0
 18 19  1  0
 19 20  1  0
 20 21  1  0
 21 17  1  0
M  RAD  2   1   2  13   2
M  END

