
     RDKit          3D

 27 28  0  0  0  0  0  0  0  0999 V2000
   -5.0640    3.5042    2.0949 O   0  0  0  0  0  1  0  0  0  0  0  0
   -5.2364    2.8093    0.8964 C   0  0  0  0  0  0  0  0  0  0  0  0
   -6.1113    3.1144    0.0583 O   0  0  0  0  0  0  0  0  0  0  0  0
   -4.3193    1.6657    0.6495 C   0  0  0  0  0  0  0  0  0  0  0  0
   -4.6664    1.0452   -0.6550 C   0  0  0  0  0  0  0  0  0  0  0  0
   -3.8636   -0.0796   -1.0303 N   0  0  0  0  0  0  0  0  0  0  0  0
   -2.4816    0.0380   -1.1968 C   0  0  0  0  0  0  0  0  0  0  0  0
   -1.8798    1.0765   -1.0393 O   0  0  0  0  0  0  0  0  0  0  0  0
   -1.7844   -1.3158   -1.6102 C   0  0  2  0  0  0  0  0  0  0  0  0
   -1.6966   -1.9297   -0.0832 C   0  0  0  0  0  0  0  0  0  0  0  0
   -1.0351   -3.2617   -0.2854 C   0  0  0  0  0  0  0  0  0  0  0  0
   -1.6214   -4.4850   -0.5264 C   0  0  0  0  0  0  0  0  0  0  0  0
   -0.6415   -5.4053   -0.6429 N   0  0  0  0  0  0  0  0  0  0  0  0
    0.5435   -4.7999   -0.4828 C   0  0  0  0  0  0  0  0  0  0  0  0
    0.3038   -3.5075   -0.2673 N   0  0  0  0  0  0  0  0  0  0  0  0
   -0.3245   -0.7849   -1.6685 N   0  0  0  0  0  0  0  0  0  0  0  0
    0.2768   -0.3145   -0.4915 C   0  0  0  0  0  0  0  0  0  0  0  0
   -0.4065   -0.3535    0.5534 O   0  0  0  0  0  0  0  0  0  0  0  0
    1.6744    0.1889   -0.5889 C   0  0  0  0  0  0  0  0  0  0  0  0
    2.0687    0.6285    0.8111 C   0  0  0  0  0  0  0  0  0  0  0  0
    3.4739    1.1300    0.7162 C   0  0  0  0  0  0  0  0  0  0  0  0
    4.5640    0.2988    0.8992 C   0  0  0  0  0  0  0  0  0  0  0  0
    5.8643    0.7537    0.8134 C   0  0  0  0  0  0  0  0  0  0  0  0
    6.1277    2.0781    0.5375 C   0  0  0  0  0  0  0  0  0  0  0  0
    7.4430    2.5382    0.4514 O   0  0  0  0  0  0  0  0  0  0  0  0
    5.0451    2.9127    0.3539 C   0  0  0  0  0  0  0  0  0  0  0  0
    3.7471    2.4552    0.4402 C   0  0  0  0  0  0  0  0  0  0  0  0
  1  2  1  0
  2  3  2  0
  2  4  1  0
  4  5  1  0
  5  6  1  0
  6  7  1  0
  7  8  2  0
  7  9  1  0
  9 10  1  1
 10 11  1  0
 11 12  2  0
 12 13  1  0
 13 14  1  0
 14 15  2  0
  9 16  1  0
 16 17  1  0
 17 18  2  0
 17 19  1  0
 19 20  1  0
 20 21  1  0
 21 22  2  0
 22 23  1  0
 23 24  2  0
 24 25  1  0
 24 26  1  0
 26 27  2  0
 15 11  1  0
 27 21  1  0
M  RAD  1   1   2
M  END

