
     RDKit          3D

 20 19  0  0  0  0  0  0  0  0999 V2000
    6.4640    1.4671    1.3655 C   0  0  0  0  0  0  0  0  0  0  0  0
    5.3525    0.5526    0.9009 C   0  0  0  0  0  0  0  0  0  0  0  0
    4.0695    0.7589    1.6859 C   0  0  0  0  0  0  0  0  0  0  0  0
    5.0485    0.6918   -0.5435 C   0  0  0  0  0  0  0  0  0  0  0  0
    3.9412   -0.2385   -0.9521 C   0  0  0  0  0  0  0  0  0  0  0  0
    2.7147    0.0188   -0.2245 N   0  0  0  0  0  0  0  0  0  0  0  0
    1.5273   -0.6924   -0.4323 C   0  0  0  0  0  0  0  0  0  0  0  0
    1.4750   -1.5859   -1.2614 O   0  0  0  0  0  0  0  0  0  0  0  0
    0.3531   -0.2167    0.4735 C   0  0  2  0  0  0  0  0  0  0  0  0
    0.3290   -1.4962    1.4940 C   0  0  0  0  0  0  0  0  0  0  0  0
    0.5903   -2.6175    0.7842 O   0  0  0  0  0  0  0  0  0  0  0  0
   -0.7900   -0.7530   -0.4272 N   0  0  0  0  0  0  0  0  0  0  0  0
   -2.0997   -0.7532    0.0163 C   0  0  0  0  0  0  0  0  0  0  0  0
   -2.3474   -0.3326    1.1529 O   0  0  0  0  0  0  0  0  0  0  0  0
   -3.1338   -1.2712   -0.9442 C   0  0  0  0  0  0  0  0  0  0  0  0
   -4.5228   -1.0996   -0.3730 C   0  0  0  0  0  0  0  0  0  0  0  0
   -4.7356    0.3864   -0.1537 C   0  0  0  0  0  0  0  0  0  0  0  0
   -4.6246    1.1596   -1.4638 C   0  0  0  0  0  0  0  0  0  0  0  0
   -4.8537    2.6285   -1.1684 C   0  0  0  0  0  0  0  0  0  0  0  0
   -4.7574    3.3932   -2.3977 N   0  0  0  0  0  4  0  0  0  0  0  0
  1  2  1  0
  2  3  1  0
  2  4  1  0
  4  5  1  0
  5  6  1  0
  6  7  1  0
  7  8  2  0
  7  9  1  0
  9 10  1  1
 10 11  1  0
  9 12  1  0
 12 13  1  0
 13 14  2  0
 13 15  1  0
 15 16  1  0
 16 17  1  0
 17 18  1  0
 18 19  1  0
 19 20  1  0
M  CHG  1  20   1
M  END

