
     RDKit          3D

 57 61  0  0  0  0  0  0  0  0999 V2000
    3.6088   -1.7000    1.8135 C   0  0  0  0  0  0  0  0  0  0  0  0
    4.3375   -1.4892    0.3355 C   0  0  2  0  0  0  0  0  0  0  0  0
    5.7126   -0.8319    1.0409 C   0  0  0  0  0  0  0  0  0  0  0  0
    6.5602   -0.5430   -0.0906 N   0  0  0  0  0  0  0  0  0  0  0  0
    7.4630   -1.2654   -0.7032 N   0  0  0  0  0  0  0  0  0  0  0  0
    7.9571   -0.5149   -1.6977 C   0  0  0  0  0  0  0  0  0  0  0  0
    7.3464    0.6824   -1.6909 N   0  0  0  0  0  0  0  0  0  0  0  0
    6.5033    0.6270   -0.6988 N   0  0  0  0  0  0  0  0  0  0  0  0
    3.6722   -0.0643    0.1262 N   0  0  0  0  0  0  0  0  0  0  0  0
    2.2557   -0.1234    0.1262 C   0  0  0  0  0  0  0  0  0  0  0  0
    1.5413   -1.2493    0.2840 N   0  0  0  0  0  0  0  0  0  0  0  0
    0.1955   -1.2778    0.2800 C   0  0  0  0  0  0  0  0  0  0  0  0
   -0.4773   -0.0861    0.1042 C   0  0  0  0  0  0  0  0  0  0  0  0
   -1.8738   -0.0180    0.0859 C   0  0  0  0  0  0  0  0  0  0  0  0
   -2.4982    1.1846   -0.0911 C   0  0  0  0  0  0  0  0  0  0  0  0
   -3.8891    1.2298   -0.1061 O   0  0  0  0  0  0  0  0  0  0  0  0
   -4.6419    0.0745    0.0558 C   0  0  0  0  0  0  0  0  0  0  0  0
   -4.0792   -1.1721    0.2388 C   0  0  0  0  0  0  0  0  0  0  0  0
   -4.8566   -2.3005    0.3966 C   0  0  0  0  0  0  0  0  0  0  0  0
   -6.2290   -2.1767    0.3704 C   0  0  0  0  0  0  0  0  0  0  0  0
   -7.0238   -3.2578    0.5213 F   0  0  0  0  0  0  0  0  0  0  0  0
   -6.7981   -0.9427    0.1891 C   0  0  0  0  0  0  0  0  0  0  0  0
   -6.0156    0.1797    0.0322 C   0  0  0  0  0  0  0  0  0  0  0  0
   -6.5780    1.4063   -0.1480 F   0  0  0  0  0  0  0  0  0  0  0  0
   -1.7394    2.3212   -0.2503 C   0  0  0  0  0  0  0  0  0  0  0  0
   -2.3171    3.4216   -0.4123 O   0  0  0  0  0  0  0  0  0  0  0  0
   -0.3879    2.2875   -0.2372 N   0  0  0  0  0  0  0  0  0  0  0  0
    0.4301    3.4735   -0.4031 C   0  0  0  0  0  0  0  0  0  0  0  0
    0.2323    1.0924   -0.0612 C   0  0  0  0  0  0  0  0  0  0  0  0
    1.5893    1.0324   -0.0444 N   0  0  0  0  0  0  0  0  0  0  0  0
   -4.9771   -2.3622    2.7632 N   0  0  0  0  0  0  0  0  0  0  0  0
   -4.2509   -1.8473    1.6187 C   0  0  0  0  0  0  0  0  0  0  0  0
   -4.0747   -0.6248    1.4335 O   0  0  0  0  0  0  0  0  0  0  0  0
   -3.7121   -2.8205    0.6521 C   0  0  0  0  0  0  0  0  0  0  0  0
   -2.9121   -2.1227   -0.3945 C   0  0  0  0  0  0  0  0  0  0  0  0
   -1.7905   -1.3816    0.1573 N   0  0  0  0  0  0  0  0  0  0  0  0
   -0.9182   -0.7152   -0.6889 C   0  0  0  0  0  0  0  0  0  0  0  0
   -1.0568   -0.7329   -1.9020 O   0  0  0  0  0  0  0  0  0  0  0  0
    0.3107    0.1020   -0.1133 C   0  0  2  0  0  0  0  0  0  0  0  0
   -0.0485    1.4948   -0.9499 C   0  0  0  0  0  0  0  0  0  0  0  0
   -1.3794    1.9083   -0.5225 C   0  0  0  0  0  0  0  0  0  0  0  0
   -1.4948    2.7724    0.5494 C   0  0  0  0  0  0  0  0  0  0  0  0
   -2.7290    3.1974    0.9787 C   0  0  0  0  0  0  0  0  0  0  0  0
   -3.8842    2.7743    0.3512 C   0  0  0  0  0  0  0  0  0  0  0  0
   -5.1196    3.2286    0.8151 O   0  0  0  0  0  0  0  0  0  0  0  0
   -3.7747    1.9150   -0.7136 C   0  0  0  0  0  0  0  0  0  0  0  0
   -2.5474    1.4946   -1.1368 C   0  0  0  0  0  0  0  0  0  0  0  0
    1.3388   -0.3437   -1.2696 N   0  0  0  0  0  0  0  0  0  0  0  0
    2.6641    0.0648   -1.0412 C   0  0  0  0  0  0  0  0  0  0  0  0
    2.9431    0.7101   -0.0236 O   0  0  0  0  0  0  0  0  0  0  0  0
    3.7013   -0.2856   -2.0223 C   0  0  0  0  0  0  0  0  0  0  0  0
    5.1007    0.0666   -1.5780 C   0  0  0  0  0  0  0  0  0  0  0  0
    5.4414   -0.6821   -0.3274 C   0  0  0  0  0  0  0  0  0  0  0  0
    5.2435   -0.3045    0.9805 C   0  0  0  0  0  0  0  0  0  0  0  0
    5.7100   -1.3047    1.7543 N   0  0  0  0  0  0  0  0  0  0  0  0
    6.1887   -2.2866    0.9567 C   0  0  0  0  0  0  0  0  0  0  0  0
    6.0278   -1.9144   -0.3269 N   0  0  0  0  0  0  0  0  0  0  0  0
  2  1  1  1
  2  3  1  0
  3  4  1  0
  4  5  1  0
  5  6  2  0
  6  7  1  0
  7  8  2  0
  2  9  1  0
  9 10  1  0
 10 11  2  0
 11 12  1  0
 12 13  2  0
 13 14  1  0
 14 15  2  0
 15 16  1  0
 16 17  1  0
 17 18  2  0
 18 19  1  0
 19 20  2  0
 20 21  1  0
 20 22  1  0
 22 23  2  0
 23 24  1  0
 15 25  1  0
 25 26  2  0
 25 27  1  0
 27 28  1  0
 27 29  1  0
 29 30  2  0
 31 32  1  0
 32 33  2  0
 32 34  1  0
 34 35  1  0
 35 36  1  0
 36 37  1  0
 37 38  2  0
 37 39  1  0
 39 40  1  6
 40 41  1  0
 41 42  2  0
 42 43  1  0
 43 44  2  0
 44 45  1  0
 44 46  1  0
 46 47  2  0
 39 48  1  0
 48 49  1  0
 49 50  2  0
 49 51  1  0
 51 52  1  0
 52 53  1  0
 53 54  2  0
 54 55  1  0
 55 56  1  0
 56 57  2  0
  8  4  1  0
 30 10  1  0
 47 41  1  0
 57 53  1  0
 29 13  1  0
 23 17  1  0
M  END

