
     RDKit          3D

 34 36  0  0  0  0  0  0  0  0999 V2000
    3.6647    5.7786    1.3735 N   0  0  0  0  0  0  0  0  0  0  0  0
    2.7216    4.7010    1.2194 C   0  0  0  0  0  0  0  0  0  0  0  0
    2.1782    4.4933    0.0936 N   0  0  0  0  0  4  0  0  0  0  0  0
    2.3948    3.8669    2.3362 N   0  0  0  0  0  0  0  0  0  0  0  0
    1.4296    2.7999    2.0981 C   0  0  0  0  0  0  0  0  0  0  0  0
    1.2002    2.0339    3.3793 C   0  0  0  0  0  0  0  0  0  0  0  0
    2.4968    1.4176    3.8768 C   0  0  0  0  0  0  0  0  0  0  0  0
    2.9749    0.4866    2.8042 C   0  0  0  0  0  0  0  0  0  0  0  0
    1.9645   -0.5977    2.5284 C   0  0  0  0  0  0  0  0  0  0  0  0
    0.9395   -0.5970    3.2311 O   0  0  0  0  0  0  0  0  0  0  0  0
    2.1451   -1.5821    1.5238 N   0  0  0  0  0  0  0  0  0  0  0  0
    0.9739   -2.5732    1.4274 C   0  0  2  0  0  0  0  0  0  0  0  0
    1.3811   -3.3030    0.0685 C   0  0  0  0  0  0  0  0  0  0  0  0
    1.4295   -2.2338   -0.9457 C   0  0  0  0  0  0  0  0  0  0  0  0
    0.4345   -1.8983   -1.8652 C   0  0  0  0  0  0  0  0  0  0  0  0
    0.8588   -0.8678   -2.6206 N   0  0  0  0  0  0  0  0  0  0  0  0
    2.0810   -0.4851   -2.2683 C   0  0  0  0  0  0  0  0  0  0  0  0
    2.9574    0.4657   -2.6975 C   0  0  0  0  0  0  0  0  0  0  0  0
    4.2135    0.6891   -2.1892 C   0  0  0  0  0  0  0  0  0  0  0  0
    4.5796   -0.1605   -1.1390 C   0  0  0  0  0  0  0  0  0  0  0  0
    3.7073   -1.1233   -0.6958 C   0  0  0  0  0  0  0  0  0  0  0  0
    2.4590   -1.3338   -1.2124 C   0  0  0  0  0  0  0  0  0  0  0  0
   -0.1435   -1.6317    0.8641 C   0  0  0  0  0  0  0  0  0  0  0  0
   -0.0188   -0.4078    0.8165 O   0  0  0  0  0  0  0  0  0  0  0  0
   -1.3458   -2.1968    0.3871 N   0  0  0  0  0  0  0  0  0  0  0  0
   -2.4625   -1.4362   -0.1311 C   0  0  0  0  0  0  0  0  0  0  0  0
   -3.5646   -2.2806   -0.6642 C   0  0  0  0  0  0  0  0  0  0  0  0
   -4.6339   -1.3702   -1.1627 C   0  0  0  0  0  0  0  0  0  0  0  0
   -4.6825   -0.8712   -2.4317 C   0  0  0  0  0  0  0  0  0  0  0  0
   -5.7056   -0.0122   -2.8693 C   0  0  0  0  0  0  0  0  0  0  0  0
   -6.6813    0.3135   -1.9379 C   0  0  0  0  0  0  0  0  0  0  0  0
   -7.7159    1.1417   -2.2679 O   0  0  0  0  0  0  0  0  0  0  0  0
   -6.6184   -0.1960   -0.6640 C   0  0  0  0  0  0  0  0  0  0  0  0
   -5.6127   -1.0294   -0.2655 C   0  0  0  0  0  0  0  0  0  0  0  0
  1  2  1  0
  2  3  2  0
  2  4  1  0
  4  5  1  0
  5  6  1  0
  6  7  1  0
  7  8  1  0
  8  9  1  0
  9 10  2  0
  9 11  1  0
 11 12  1  0
 12 13  1  1
 13 14  1  0
 14 15  2  0
 15 16  1  0
 16 17  1  0
 17 18  2  0
 18 19  1  0
 19 20  2  0
 20 21  1  0
 21 22  2  0
 12 23  1  0
 23 24  2  0
 23 25  1  0
 25 26  1  0
 26 27  1  0
 27 28  1  0
 28 29  2  0
 29 30  1  0
 30 31  2  0
 31 32  1  0
 31 33  1  0
 33 34  2  0
 22 14  1  0
 34 28  1  0
 22 17  1  0
M  CHG  1   3   1
M  END

