
     RDKit          3D

 18 18  0  0  0  0  0  0  0  0999 V2000
    4.6414   -3.2318    0.8550 C   0  0  0  0  0  0  0  0  0  0  0  0
    4.0832   -1.8959    1.2861 C   0  0  0  0  0  0  0  0  0  0  0  0
    2.9569   -1.4574    0.4460 C   0  0  0  0  0  0  0  0  0  0  0  0
    2.5862   -2.1825   -0.4919 O   0  0  0  0  0  0  0  0  0  0  0  0
    2.2814   -0.2443    0.6685 N   0  0  0  0  0  0  0  0  0  0  0  0
    1.0977    0.0606   -0.3300 C   0  0  1  0  0  0  0  0  0  0  0  0
   -0.0409   -0.4292    0.7547 C   0  0  0  0  0  0  0  0  0  0  0  0
   -1.3416   -0.2585    0.0379 C   0  0  0  0  0  0  0  0  0  0  0  0
   -2.0777    0.8972    0.1594 C   0  0  0  0  0  0  0  0  0  0  0  0
   -3.2717    1.0818   -0.4855 C   0  0  0  0  0  0  0  0  0  0  0  0
   -3.7449    0.0717   -1.2805 C   0  0  0  0  0  0  0  0  0  0  0  0
   -4.9553    0.1682   -1.9789 O   0  0  0  0  0  0  0  0  0  0  0  0
   -3.0435   -1.1157   -1.4393 C   0  0  0  0  0  0  0  0  0  0  0  0
   -1.8371   -1.2675   -0.7704 C   0  0  0  0  0  0  0  0  0  0  0  0
    0.9974    1.6012    0.0254 C   0  0  0  0  0  0  0  0  0  0  0  0
    1.6937    2.0901    0.8957 O   0  0  0  0  0  0  0  0  0  0  0  0
    0.0609    2.3567   -0.7252 N   0  0  0  0  0  0  0  0  0  0  0  0
   -0.0861    3.7553   -0.4631 C   0  0  0  0  0  0  0  0  0  0  0  0
  1  2  1  0
  2  3  1  0
  3  4  2  0
  3  5  1  0
  5  6  1  0
  6  7  1  1
  7  8  1  0
  8  9  2  0
  9 10  1  0
 10 11  2  0
 11 12  1  0
 11 13  1  0
 13 14  2  0
  6 15  1  0
 15 16  2  0
 15 17  1  0
 17 18  1  0
 14  8  1  0
M  END

