
     RDKit          3D

 59 62  0  0  0  0  0  0  0  0999 V2000
    4.6518   -0.5921    1.2941 C   0  0  0  0  0  0  0  0  0  0  0  0
    4.9659   -1.4662   -0.0794 C   0  0  2  0  0  0  0  0  0  0  0  0
    4.3214   -0.3249   -1.0857 C   0  0  0  0  0  0  0  0  0  0  0  0
    5.1124    0.8614   -0.8468 N   0  0  0  0  0  0  0  0  0  0  0  0
    4.8894    1.8204    0.0464 N   0  0  0  0  0  0  0  0  0  0  0  0
    5.8958    2.7109   -0.1093 C   0  0  0  0  0  0  0  0  0  0  0  0
    6.7253    2.2940   -1.0923 N   0  0  0  0  0  0  0  0  0  0  0  0
    6.2075    1.1477   -1.5232 N   0  0  0  0  0  0  0  0  0  0  0  0
    3.6494   -2.3198    0.0114 N   0  0  0  0  0  0  0  0  0  0  0  0
    2.4120   -1.6871    0.0310 C   0  0  0  0  0  0  0  0  0  0  0  0
    2.1973   -0.3582   -0.0214 N   0  0  0  0  0  0  0  0  0  0  0  0
    0.9747    0.1838    0.0017 C   0  0  0  0  0  0  0  0  0  0  0  0
   -0.1305   -0.6380    0.0827 C   0  0  0  0  0  0  0  0  0  0  0  0
   -1.4071   -0.1488    0.1103 C   0  0  0  0  0  0  0  0  0  0  0  0
   -2.4587   -1.0274    0.1918 C   0  0  0  0  0  0  0  0  0  0  0  0
   -3.7712   -0.6172    0.2244 O   0  0  0  0  0  0  0  0  0  0  0  0
   -4.1075    0.7295    0.1759 C   0  0  0  0  0  0  0  0  0  0  0  0
   -3.1732    1.7406    0.0930 C   0  0  0  0  0  0  0  0  0  0  0  0
   -3.5632    3.0634    0.0476 C   0  0  0  0  0  0  0  0  0  0  0  0
   -4.8859    3.4530    0.0816 C   0  0  0  0  0  0  0  0  0  0  0  0
   -5.2559    4.7575    0.0363 F   0  0  0  0  0  0  0  0  0  0  0  0
   -5.8182    2.4402    0.1645 C   0  0  0  0  0  0  0  0  0  0  0  0
   -5.4304    1.1163    0.2100 C   0  0  0  0  0  0  0  0  0  0  0  0
   -6.3612    0.1081    0.2927 F   0  0  0  0  0  0  0  0  0  0  0  0
   -2.1817   -2.3791    0.2428 C   0  0  0  0  0  0  0  0  0  0  0  0
   -3.1606   -3.1842    0.3181 O   0  0  0  0  0  0  0  0  0  0  0  0
   -0.9499   -2.8733    0.2172 N   0  0  0  0  0  0  0  0  0  0  0  0
   -0.7545   -4.3199    0.2758 C   0  0  0  0  0  0  0  0  0  0  0  0
    0.0761   -2.0131    0.1376 C   0  0  0  0  0  0  0  0  0  0  0  0
    1.3305   -2.4775    0.1096 N   0  0  0  0  0  0  0  0  0  0  0  0
   -0.6998    4.3697   -0.8567 N   0  0  0  0  0  0  0  0  0  0  0  0
   -1.2596    3.2125   -1.4287 C   0  0  0  0  0  0  0  0  0  0  0  0
   -2.5433    3.1418   -1.5149 N   0  0  0  0  0  4  0  0  0  0  0  0
   -0.5089    2.1077   -1.9167 N   0  0  0  0  0  0  0  0  0  0  0  0
   -1.2019    0.9734   -2.4764 C   0  0  0  0  0  0  0  0  0  0  0  0
   -0.3141   -0.0670   -3.0249 C   0  0  0  0  0  0  0  0  0  0  0  0
    0.6661   -0.7249   -2.1552 C   0  0  0  0  0  0  0  0  0  0  0  0
   -0.1482   -1.5194   -0.9523 C   0  0  2  0  0  0  0  0  0  0  0  0
   -0.8367   -0.1981   -0.4175 N   0  0  0  0  0  0  0  0  0  0  0  0
   -2.1712   -0.4033   -0.0016 C   0  0  0  0  0  0  0  0  0  0  0  0
   -2.6826   -1.5551   -0.0890 O   0  0  0  0  0  0  0  0  0  0  0  0
   -2.9866    0.7005    0.5349 C   0  0  0  0  0  0  0  0  0  0  0  0
   -4.4030    0.2324    0.8535 C   0  0  0  0  0  0  0  0  0  0  0  0
   -4.3302   -0.8954    1.8965 C   0  0  0  0  0  0  0  0  0  0  0  0
   -5.7342   -1.3425    2.1783 C   0  0  0  0  0  0  0  0  0  0  0  0
   -5.9635   -2.3699    3.0743 O   0  0  0  0  0  1  0  0  0  0  0  0
   -6.7345   -0.8209    1.6298 O   0  0  0  0  0  0  0  0  0  0  0  0
    1.1175   -1.5395    0.0079 C   0  0  0  0  0  0  0  0  0  0  0  0
    1.3673   -0.4803    0.5439 O   0  0  0  0  0  0  0  0  0  0  0  0
    1.8633   -2.6780    0.2082 N   0  0  0  0  0  0  0  0  0  0  0  0
    2.9952   -2.9435    0.9537 C   0  0  0  0  0  0  0  0  0  0  0  0
    4.2363   -2.3397    0.5280 C   0  0  0  0  0  0  0  0  0  0  0  0
    4.2362   -0.8916    0.4154 C   0  0  0  0  0  0  0  0  0  0  0  0
    4.4259   -0.1768    1.6019 C   0  0  0  0  0  0  0  0  0  0  0  0
    4.4917    1.2045    1.5198 C   0  0  0  0  0  0  0  0  0  0  0  0
    4.3744    1.8410    0.3108 C   0  0  0  0  0  0  0  0  0  0  0  0
    4.4402    3.2138    0.2288 O   0  0  0  0  0  0  0  0  0  0  0  0
    4.1864    1.1163   -0.8596 C   0  0  0  0  0  0  0  0  0  0  0  0
    4.1180   -0.2698   -0.7920 C   0  0  0  0  0  0  0  0  0  0  0  0
  2  1  1  1
  2  3  1  0
  3  4  1  0
  4  5  1  0
  5  6  2  0
  6  7  1  0
  7  8  2  0
  2  9  1  0
  9 10  1  0
 10 11  2  0
 11 12  1  0
 12 13  2  0
 13 14  1  0
 14 15  2  0
 15 16  1  0
 16 17  1  0
 17 18  2  0
 18 19  1  0
 19 20  2  0
 20 21  1  0
 20 22  1  0
 22 23  2  0
 23 24  1  0
 15 25  1  0
 25 26  2  0
 25 27  1  0
 27 28  1  0
 27 29  1  0
 29 30  2  0
 31 32  1  0
 32 33  2  0
 32 34  1  0
 34 35  1  0
 35 36  1  0
 36 37  1  0
 38 37  1  6
 38 39  1  0
 39 40  1  0
 40 41  2  0
 40 42  1  0
 42 43  1  0
 43 44  1  0
 44 45  1  0
 45 46  1  0
 45 47  2  0
 38 48  1  0
 48 49  2  0
 48 50  1  0
 50 51  1  0
 51 52  1  0
 52 53  1  0
 53 54  2  0
 54 55  1  0
 55 56  2  0
 56 57  1  0
 56 58  1  0
 58 59  2  0
  8  4  1  0
 30 10  1  0
 59 53  1  0
 29 13  1  0
 23 17  1  0
M  CHG  1  33   1
M  RAD  1  46   2
M  END

