
     RDKit          3D

 51 53  0  0  0  0  0  0  0  0999 V2000
    5.3282    1.5971   -2.0802 C   0  0  0  0  0  0  0  0  0  0  0  0
    3.9523    2.0929   -1.7400 C   0  0  0  0  0  0  0  0  0  0  0  0
    4.0202    3.2169   -0.7246 C   0  0  0  0  0  0  0  0  0  0  0  0
    3.0525    0.9756   -1.2983 C   0  0  0  0  0  0  0  0  0  0  0  0
    3.6211    0.3018   -0.0710 C   0  0  0  0  0  0  0  0  0  0  0  0
    2.7753   -0.7854    0.3865 N   0  0  0  0  0  0  0  0  0  0  0  0
    1.4464   -0.4100    0.7453 C   0  0  0  0  0  0  0  0  0  0  0  0
    1.0230    0.7174    0.6849 O   0  0  0  0  0  0  0  0  0  0  0  0
    0.5274   -1.6330    1.2503 C   0  0  2  0  0  0  0  0  0  0  0  0
    0.1757   -2.1963   -0.2747 C   0  0  0  0  0  0  0  0  0  0  0  0
   -0.6902   -3.3810    0.0017 C   0  0  0  0  0  0  0  0  0  0  0  0
   -1.9509   -3.0406    0.7614 C   0  0  0  0  0  0  0  0  0  0  0  0
    0.0820   -4.3732    0.8804 C   0  0  0  0  0  0  0  0  0  0  0  0
   -0.7867   -0.7923    1.4883 N   0  0  0  0  0  0  0  0  0  0  0  0
   -1.4256   -0.1959    0.4269 C   0  0  0  0  0  0  0  0  0  0  0  0
   -0.8889   -0.3767   -0.6945 O   0  0  0  0  0  0  0  0  0  0  0  0
   -2.6531    0.5967    0.6093 C   0  0  0  0  0  0  0  0  0  0  0  0
   -3.1994    1.1640   -0.6658 C   0  0  0  0  0  0  0  0  0  0  0  0
   -4.4251    1.9287   -0.3151 C   0  0  0  0  0  0  0  0  0  0  0  0
   -5.1227    2.5571   -1.3473 O   0  0  0  0  0  1  0  0  0  0  0  0
   -4.8617    2.0364    0.8588 O   0  0  0  0  0  0  0  0  0  0  0  0
    3.6384   -1.8383   -0.9604 C   0  0  0  0  0  0  0  0  0  0  0  0
    4.3945   -0.3887   -0.5728 C   0  0  2  0  0  0  0  0  0  0  0  0
    5.6844   -1.1913    0.1157 C   0  0  0  0  0  0  0  0  0  0  0  0
    6.4967   -0.0657    0.5357 N   0  0  0  0  0  0  0  0  0  0  0  0
    6.4048    0.5124    1.7010 N   0  0  0  0  0  0  0  0  0  0  0  0
    7.3091    1.5064    1.7229 C   0  0  0  0  0  0  0  0  0  0  0  0
    7.9284    1.4904    0.5407 N   0  0  0  0  0  0  0  0  0  0  0  0
    7.4208    0.5080   -0.2013 N   0  0  0  0  0  0  0  0  0  0  0  0
    3.6397   -0.2575    0.8076 N   0  0  0  0  0  0  0  0  0  0  0  0
    2.2314   -0.1950    0.7642 C   0  0  0  0  0  0  0  0  0  0  0  0
    1.4427   -0.0842    1.8298 N   0  0  0  0  0  0  0  0  0  0  0  0
    0.0963   -0.0311    1.6929 C   0  0  0  0  0  0  0  0  0  0  0  0
   -0.4964   -0.0903    0.4455 C   0  0  0  0  0  0  0  0  0  0  0  0
   -1.8617   -0.0399    0.2562 C   0  0  0  0  0  0  0  0  0  0  0  0
   -2.3471   -0.1075   -1.0405 C   0  0  0  0  0  0  0  0  0  0  0  0
   -3.7091   -0.0624   -1.3039 O   0  0  0  0  0  0  0  0  0  0  0  0
   -4.6541    0.0520   -0.2926 C   0  0  0  0  0  0  0  0  0  0  0  0
   -4.2618    0.1245    1.0112 C   0  0  0  0  0  0  0  0  0  0  0  0
   -5.2003    0.2396    2.0371 C   0  0  0  0  0  0  0  0  0  0  0  0
   -6.5534    0.2806    1.7211 C   0  0  0  0  0  0  0  0  0  0  0  0
   -7.4920    0.3917    2.6901 F   0  0  0  0  0  0  0  0  0  0  0  0
   -6.9511    0.2074    0.4029 C   0  0  0  0  0  0  0  0  0  0  0  0
   -5.9877    0.0927   -0.6004 C   0  0  0  0  0  0  0  0  0  0  0  0
   -6.3823    0.0205   -1.9011 F   0  0  0  0  0  0  0  0  0  0  0  0
   -1.4749   -0.2215   -2.0969 C   0  0  0  0  0  0  0  0  0  0  0  0
   -1.9455   -0.2806   -3.2615 O   0  0  0  0  0  0  0  0  0  0  0  0
   -0.1235   -0.2718   -1.9149 N   0  0  0  0  0  0  0  0  0  0  0  0
    0.7749   -0.3918   -3.0398 C   0  0  0  0  0  0  0  0  0  0  0  0
    0.3286   -0.2048   -0.6492 C   0  0  0  0  0  0  0  0  0  0  0  0
    1.6503   -0.2517   -0.4394 N   0  0  0  0  0  0  0  0  0  0  0  0
  1  2  1  0
  2  3  1  0
  2  4  1  0
  4  5  1  0
  5  6  1  0
  6  7  1  0
  7  8  2  0
  7  9  1  0
  9 10  1  6
 10 11  1  0
 11 12  1  0
 11 13  1  0
  9 14  1  0
 14 15  1  0
 15 16  2  0
 15 17  1  0
 17 18  1  0
 18 19  1  0
 19 20  1  0
 19 21  2  0
 23 22  1  6
 23 24  1  0
 24 25  1  0
 25 26  1  0
 26 27  2  0
 27 28  1  0
 28 29  2  0
 23 30  1  0
 30 31  1  0
 31 32  2  0
 32 33  1  0
 33 34  2  0
 34 35  1  0
 35 36  2  0
 36 37  1  0
 37 38  1  0
 38 39  2  0
 39 40  1  0
 40 41  2  0
 41 42  1  0
 41 43  1  0
 43 44  2  0
 44 45  1  0
 36 46  1  0
 46 47  2  0
 46 48  1  0
 48 49  1  0
 48 50  1  0
 50 51  2  0
 29 25  1  0
 51 31  1  0
 50 34  1  0
 44 38  1  0
M  RAD  1  20   2
M  END

