
     RDKit          3D

 50 53  0  0  0  0  0  0  0  0999 V2000
   -0.9532    1.9555   -1.2544 C   0  0  0  0  0  0  0  0  0  0  0  0
   -0.3256    0.6923   -0.8375 C   0  0  0  0  0  0  0  0  0  0  0  0
   -0.2808   -0.4243   -1.7663 C   0  0  0  0  0  0  0  0  0  0  0  0
   -1.1046    0.1980    0.5439 C   0  0  2  0  0  0  0  0  0  0  0  0
   -0.2096   -1.1000    0.6812 N   0  0  0  0  0  0  0  0  0  0  0  0
    1.1759   -0.8216    0.8675 C   0  0  0  0  0  0  0  0  0  0  0  0
    1.5859    0.3655    0.9027 O   0  0  0  0  0  0  0  0  0  0  0  0
    2.1930   -1.8909    1.0302 C   0  0  0  0  0  0  0  0  0  0  0  0
    3.5677   -1.3456    1.1994 C   0  0  0  0  0  0  0  0  0  0  0  0
    4.0514   -0.5388    0.0110 C   0  0  0  0  0  0  0  0  0  0  0  0
    5.4114    0.0047    0.2465 C   0  0  0  0  0  0  0  0  0  0  0  0
    6.4431   -0.2926   -0.6347 O   0  0  0  0  0  1  0  0  0  0  0  0
    5.6543    0.7387    1.2430 O   0  0  0  0  0  0  0  0  0  0  0  0
   -2.3408   -0.4772   -0.1926 C   0  0  0  0  0  0  0  0  0  0  0  0
   -2.3078   -1.6607   -0.4897 O   0  0  0  0  0  0  0  0  0  0  0  0
   -3.4611    0.3273   -0.4866 N   0  0  0  0  0  0  0  0  0  0  0  0
   -3.6325    1.7567   -0.1684 C   0  0  0  0  0  0  0  0  0  0  0  0
   -5.0054    1.7000    0.5114 C   0  0  0  0  0  0  0  0  0  0  0  0
   -5.7586    0.8188   -0.4597 C   0  0  0  0  0  0  0  0  0  0  0  0
   -4.7028   -0.0057   -1.1543 C   0  0  0  0  0  0  0  0  0  0  0  0
   -3.7289    1.9456   -1.3144 C   0  0  0  0  0  0  0  0  0  0  0  0
   -4.4400    0.5215   -0.8409 C   0  0  2  0  0  0  0  0  0  0  0  0
   -5.7013    1.3170   -0.0698 C   0  0  0  0  0  0  0  0  0  0  0  0
   -6.4950    0.2110    0.4487 N   0  0  0  0  0  0  0  0  0  0  0  0
   -6.3917   -0.3932    1.6213 N   0  0  0  0  0  0  0  0  0  0  0  0
   -7.3286   -1.3689    1.6867 C   0  0  0  0  0  0  0  0  0  0  0  0
   -7.9958   -1.3319    0.5201 N   0  0  0  0  0  0  0  0  0  0  0  0
   -7.4786   -0.3731   -0.2124 N   0  0  0  0  0  0  0  0  0  0  0  0
   -3.5701    0.4132    0.4774 N   0  0  0  0  0  0  0  0  0  0  0  0
   -2.1685    0.3480    0.2918 C   0  0  0  0  0  0  0  0  0  0  0  0
   -1.4158    0.2560    1.3962 N   0  0  0  0  0  0  0  0  0  0  0  0
   -0.0749    0.1856    1.3882 C   0  0  0  0  0  0  0  0  0  0  0  0
    0.5976    0.2080    0.1681 C   0  0  0  0  0  0  0  0  0  0  0  0
    1.9602    0.1401    0.0840 C   0  0  0  0  0  0  0  0  0  0  0  0
    2.5775    0.1654   -1.1367 C   0  0  0  0  0  0  0  0  0  0  0  0
    3.9574    0.0952   -1.1912 O   0  0  0  0  0  0  0  0  0  0  0  0
    4.7855    0.0005   -0.1161 C   0  0  0  0  0  0  0  0  0  0  0  0
    5.7335    0.9926    0.0995 C   0  0  0  0  0  0  0  0  0  0  0  0
    6.6005    0.9367    1.1852 C   0  0  0  0  0  0  0  0  0  0  0  0
    6.5342   -0.1167    2.0777 C   0  0  0  0  0  0  0  0  0  0  0  0
    7.3526   -0.2246    3.1534 F   0  0  0  0  0  0  0  0  0  0  0  0
    5.6068   -1.0977    1.8764 C   0  0  0  0  0  0  0  0  0  0  0  0
    4.7583   -1.0285    0.8006 C   0  0  0  0  0  0  0  0  0  0  0  0
    3.8602   -2.0107    0.6354 F   0  0  0  0  0  0  0  0  0  0  0  0
    1.7893    0.2605   -2.2649 C   0  0  0  0  0  0  0  0  0  0  0  0
    2.3474    0.2855   -3.4145 O   0  0  0  0  0  0  0  0  0  0  0  0
    0.4498    0.3260   -2.1571 N   0  0  0  0  0  0  0  0  0  0  0  0
   -0.4028    0.4270   -3.3387 C   0  0  0  0  0  0  0  0  0  0  0  0
   -0.1758    0.3022   -0.9579 C   0  0  0  0  0  0  0  0  0  0  0  0
   -1.5431    0.3714   -0.8962 N   0  0  0  0  0  0  0  0  0  0  0  0
  1  2  1  0
  2  3  1  0
  2  4  1  0
  4  5  1  6
  5  6  1  0
  6  7  2  0
  6  8  1  0
  8  9  1  0
  9 10  1  0
 10 11  1  0
 11 12  1  0
 11 13  2  0
  4 14  1  0
 14 15  2  0
 14 16  1  0
 16 17  1  0
 17 18  1  0
 18 19  1  0
 19 20  1  0
 22 21  1  6
 22 23  1  0
 23 24  1  0
 24 25  1  0
 25 26  2  0
 26 27  1  0
 27 28  2  0
 22 29  1  0
 29 30  1  0
 30 31  2  0
 31 32  1  0
 32 33  2  0
 33 34  1  0
 34 35  2  0
 35 36  1  0
 36 37  1  0
 37 38  2  0
 38 39  1  0
 39 40  2  0
 40 41  1  0
 40 42  1  0
 42 43  2  0
 43 44  1  0
 35 45  1  0
 45 46  2  0
 45 47  1  0
 47 48  1  0
 47 49  1  0
 49 50  2  0
 20 16  1  0
 28 24  1  0
 50 30  1  0
 49 33  1  0
 43 37  1  0
M  RAD  1  12   2
M  END

