
     RDKit          3D

 53 57  0  0  0  0  0  0  0  0999 V2000
    4.0937   -0.6176   -1.4904 C   0  0  0  0  0  0  0  0  0  0  0  0
    4.3218   -1.8559   -0.7148 C   0  0  0  0  0  0  0  0  0  0  0  0
    5.1551   -1.6888    0.5209 C   0  0  0  0  0  0  0  0  0  0  0  0
    3.1734   -2.7521   -0.5860 C   0  0  0  0  0  0  0  0  0  0  0  0
    1.9425   -2.3100    0.0527 C   0  0  0  0  0  0  0  0  0  0  0  0
    1.1845   -1.2089   -0.5270 C   0  0  0  0  0  0  0  0  0  0  0  0
    1.4474   -0.6633   -1.6034 O   0  0  0  0  0  0  0  0  0  0  0  0
    0.0608   -0.7519    0.2341 N   0  0  0  0  0  0  0  0  0  0  0  0
   -0.7285    0.4367   -0.4262 C   0  0  1  0  0  0  0  0  0  0  0  0
   -1.7796    0.5677    0.8599 C   0  0  0  0  0  0  0  0  0  0  0  0
   -2.3718   -0.8046    0.8224 C   0  0  0  0  0  0  0  0  0  0  0  0
   -1.8095   -1.8459    1.5396 C   0  0  0  0  0  0  0  0  0  0  0  0
   -2.3715   -3.0918    1.4848 C   0  0  0  0  0  0  0  0  0  0  0  0
   -3.4904   -3.3072    0.7204 C   0  0  0  0  0  0  0  0  0  0  0  0
   -4.0453   -2.2737    0.0115 C   0  0  0  0  0  0  0  0  0  0  0  0
   -3.4767   -1.0011    0.0631 C   0  0  0  0  0  0  0  0  0  0  0  0
    0.2196    1.6074    0.0196 C   0  0  0  0  0  0  0  0  0  0  0  0
    1.1905    1.2911    0.6718 O   0  0  0  0  0  0  0  0  0  0  0  0
   -0.0772    2.9248   -0.3376 N   0  0  0  0  0  0  0  0  0  0  0  0
   -1.2257    3.3780   -1.1160 C   0  0  0  0  0  0  0  0  0  0  0  0
   -1.6622    4.6770   -0.4322 C   0  0  0  0  0  0  0  0  0  0  0  0
   -0.4039    5.1821    0.2666 C   0  0  0  0  0  0  0  0  0  0  0  0
    0.6529    4.1080   -0.0340 C   0  0  0  0  0  0  0  0  0  0  0  0
    5.7991   -2.5060   -1.4260 C   0  0  0  0  0  0  0  0  0  0  0  0
    4.3931   -1.9300   -2.0437 C   0  0  2  0  0  0  0  0  0  0  0  0
    4.9357   -0.4153   -2.3105 C   0  0  0  0  0  0  0  0  0  0  0  0
    5.3612    0.1641   -1.0786 N   0  0  0  0  0  0  0  0  0  0  0  0
    6.6268    0.0310   -0.6615 N   0  0  0  0  0  0  0  0  0  0  0  0
    6.7855    0.6587    0.5179 C   0  0  0  0  0  0  0  0  0  0  0  0
    5.5883    1.1873    0.8276 N   0  0  0  0  0  0  0  0  0  0  0  0
    4.7764    0.8635   -0.1556 N   0  0  0  0  0  0  0  0  0  0  0  0
    3.7659   -1.6027   -0.6575 N   0  0  0  0  0  0  0  0  0  0  0  0
    2.4711   -1.0543   -0.8030 C   0  0  0  0  0  0  0  0  0  0  0  0
    1.8789   -0.8500   -1.9683 N   0  0  0  0  0  0  0  0  0  0  0  0
    0.6541   -0.3337   -2.1659 C   0  0  0  0  0  0  0  0  0  0  0  0
   -0.0653    0.0219   -1.0441 C   0  0  0  0  0  0  0  0  0  0  0  0
   -1.3239    0.5598   -1.0750 C   0  0  0  0  0  0  0  0  0  0  0  0
   -2.0123    0.9035    0.0774 C   0  0  0  0  0  0  0  0  0  0  0  0
   -3.2699    1.4373   -0.0391 O   0  0  0  0  0  0  0  0  0  0  0  0
   -4.3123    0.7304    0.5723 C   0  0  0  0  0  0  0  0  0  0  0  0
   -4.1179   -0.4413    1.2613 C   0  0  0  0  0  0  0  0  0  0  0  0
   -5.2135   -1.0594    1.8270 C   0  0  0  0  0  0  0  0  0  0  0  0
   -6.4702   -0.5179    1.7056 C   0  0  0  0  0  0  0  0  0  0  0  0
   -7.5397   -1.1470    2.2736 F   0  0  0  0  0  0  0  0  0  0  0  0
   -6.6259    0.6469    1.0143 C   0  0  0  0  0  0  0  0  0  0  0  0
   -5.5726    1.2961    0.4365 C   0  0  0  0  0  0  0  0  0  0  0  0
   -5.7448    2.4573   -0.2498 F   0  0  0  0  0  0  0  0  0  0  0  0
   -1.3817    0.6852    1.3002 C   0  0  0  0  0  0  0  0  0  0  0  0
   -2.0161    1.0005    2.3278 O   0  0  0  0  0  0  0  0  0  0  0  0
   -0.1448    0.1560    1.3158 N   0  0  0  0  0  0  0  0  0  0  0  0
    0.4874   -0.0596    2.6180 C   0  0  0  0  0  0  0  0  0  0  0  0
    0.5270   -0.1793    0.1942 C   0  0  0  0  0  0  0  0  0  0  0  0
    1.7604   -0.7030    0.3024 N   0  0  0  0  0  0  0  0  0  0  0  0
  1  2  1  0
  2  3  1  0
  2  4  1  0
  4  5  1  0
  5  6  1  0
  6  7  2  0
  6  8  1  0
  8  9  1  0
  9 10  1  1
 10 11  1  0
 11 12  2  0
 12 13  1  0
 13 14  2  0
 14 15  1  0
 15 16  2  0
  9 17  1  0
 17 18  2  0
 17 19  1  0
 19 20  1  0
 20 21  1  0
 21 22  1  0
 22 23  1  0
 25 24  1  1
 25 26  1  0
 26 27  1  0
 27 28  1  0
 28 29  2  0
 29 30  1  0
 30 31  2  0
 25 32  1  0
 32 33  1  0
 33 34  2  0
 34 35  1  0
 35 36  2  0
 36 37  1  0
 37 38  2  0
 38 39  1  0
 39 40  1  0
 40 41  2  0
 41 42  1  0
 42 43  2  0
 43 44  1  0
 43 45  1  0
 45 46  2  0
 46 47  1  0
 38 48  1  0
 48 49  2  0
 48 50  1  0
 50 51  1  0
 50 52  1  0
 52 53  2  0
 16 11  1  0
 23 19  1  0
 31 27  1  0
 53 33  1  0
 52 36  1  0
 46 40  1  0
M  END

