
     RDKit          3D

 24 24  0  0  0  0  0  0  0  0999 V2000
    7.1866   -0.1800    1.1147 N   0  0  0  0  0  0  0  0  0  0  0  0
    6.1170   -0.4646    0.2176 C   0  0  0  0  0  0  0  0  0  0  0  0
    6.4004   -0.7922   -0.9779 O   0  0  0  0  0  0  0  0  0  0  0  0
    4.7495   -0.3648    0.7208 C   0  0  0  0  0  0  0  0  0  0  0  0
    3.6875   -0.5371   -0.3412 C   0  0  0  0  0  0  0  0  0  0  0  0
    2.4082   -0.4110    0.3870 N   0  0  0  0  0  0  0  0  0  0  0  0
    1.2583   -0.5089   -0.3905 C   0  0  0  0  0  0  0  0  0  0  0  0
    1.3083   -0.6838   -1.5750 O   0  0  0  0  0  0  0  0  0  0  0  0
   -0.1168   -0.3654    0.3968 C   0  0  2  0  0  0  0  0  0  0  0  0
   -0.6745   -1.8854   -0.0154 C   0  0  0  0  0  0  0  0  0  0  0  0
    0.4044   -2.7019    0.6289 C   0  0  0  0  0  0  0  0  0  0  0  0
    0.2795   -4.1505    0.5092 C   0  0  0  0  0  0  0  0  0  0  0  0
    0.3162   -4.9465    1.6803 O   0  0  0  0  0  1  0  0  0  0  0  0
    0.1419   -4.7320   -0.5764 O   0  0  0  0  0  0  0  0  0  0  0  0
   -0.8964    0.3485   -0.7815 N   0  0  0  0  0  0  0  0  0  0  0  0
   -2.2299    0.7396   -0.4278 C   0  0  0  0  0  0  0  0  0  0  0  0
   -2.6393    0.4755    0.7133 O   0  0  0  0  0  0  0  0  0  0  0  0
   -3.0317    1.4434   -1.4535 C   0  0  0  0  0  0  0  0  0  0  0  0
   -4.3482    1.8715   -0.9011 C   0  0  0  0  0  0  0  0  0  0  0  0
   -4.2015    2.7979    0.2562 C   0  0  0  0  0  0  0  0  0  0  0  0
   -4.1644    2.5156    1.5985 C   0  0  0  0  0  0  0  0  0  0  0  0
   -3.9876    3.7078    2.2339 N   0  0  0  0  0  0  0  0  0  0  0  0
   -3.9191    4.6844    1.3360 C   0  0  0  0  0  0  0  0  0  0  0  0
   -4.0483    4.1399    0.1236 N   0  0  0  0  0  0  0  0  0  0  0  0
  1  2  1  0
  2  3  2  0
  2  4  1  0
  4  5  1  0
  5  6  1  0
  6  7  1  0
  7  8  2  0
  7  9  1  0
  9 10  1  6
 10 11  1  0
 11 12  1  0
 12 13  1  0
 12 14  2  0
  9 15  1  0
 15 16  1  0
 16 17  2  0
 16 18  1  0
 18 19  1  0
 19 20  1  0
 20 21  2  0
 21 22  1  0
 22 23  1  0
 23 24  2  0
 24 20  1  0
M  RAD  1  13   2
M  END

