
     RDKit          3D

 23 22  0  0  0  0  0  0  0  0999 V2000
    2.3784   -2.8890    0.2664 C   0  0  0  0  0  0  0  0  0  0  0  0
    1.7166   -1.7873   -0.5246 C   0  0  0  0  0  0  0  0  0  0  0  0
    2.1892   -1.9479   -1.9571 C   0  0  0  0  0  0  0  0  0  0  0  0
    0.2091   -1.8047   -0.4354 C   0  0  0  0  0  0  0  0  0  0  0  0
   -0.0998   -1.6425    1.1763 C   0  0  2  0  0  0  0  0  0  0  0  0
   -1.6503   -1.6654    1.1455 N   0  0  0  0  0  0  0  0  0  0  0  0
   -2.4058   -1.0304    0.2245 C   0  0  0  0  0  0  0  0  0  0  0  0
   -1.8164   -0.3542   -0.6796 O   0  0  0  0  0  0  0  0  0  0  0  0
   -3.8954   -1.1212    0.2662 C   0  0  0  0  0  0  0  0  0  0  0  0
   -4.5165   -0.1781   -0.7491 C   0  0  0  0  0  0  0  0  0  0  0  0
   -4.1551    1.2701   -0.4319 C   0  0  0  0  0  0  0  0  0  0  0  0
   -4.7484    2.1816   -1.4192 C   0  0  0  0  0  0  0  0  0  0  0  0
   -4.8401    3.5935   -1.1324 N   0  0  0  0  0  0  0  0  0  0  0  0
   -5.1808    1.7500   -2.5220 O   0  0  0  0  0  0  0  0  0  0  0  0
    0.1433   -0.0763    1.2070 C   0  0  0  0  0  0  0  0  0  0  0  0
   -0.7250    0.7436    1.3744 O   0  0  0  0  0  0  0  0  0  0  0  0
    1.4709    0.3455    1.0178 N   0  0  0  0  0  0  0  0  0  0  0  0
    1.9918    1.6804    0.9877 C   0  0  0  0  0  0  0  0  0  0  0  0
    3.4853    1.6874    0.7024 C   0  0  0  0  0  0  0  0  0  0  0  0
    3.7515    1.0334   -0.6397 C   0  0  0  0  0  0  0  0  0  0  0  0
    5.2182    1.0341   -0.9257 C   0  0  0  0  0  0  0  0  0  0  0  0
    5.9412    0.2714    0.1501 C   0  0  0  0  0  0  0  0  0  0  0  0
    5.5380   -1.0942    0.2787 N   0  0  0  0  0  4  0  0  0  0  0  0
  1  2  1  0
  2  3  1  0
  2  4  1  0
  5  4  1  6
  5  6  1  0
  6  7  1  0
  7  8  2  0
  7  9  1  0
  9 10  1  0
 10 11  1  0
 11 12  1  0
 12 13  1  0
 12 14  2  0
  5 15  1  0
 15 16  2  0
 15 17  1  0
 17 18  1  0
 18 19  1  0
 19 20  1  0
 20 21  1  0
 21 22  1  0
 22 23  1  0
M  CHG  1  23   1
M  END

