
     RDKit          3D

 20 19  0  0  0  0  0  0  0  0999 V2000
   -2.6317    3.5175    0.8152 C   0  0  0  0  0  0  0  0  0  0  0  0
   -3.6602    2.9754   -0.1854 C   0  0  0  0  0  0  0  0  0  0  0  0
   -2.8819    1.5880   -0.6639 C   0  0  2  0  0  0  0  0  0  0  0  0
   -4.1324    1.1847   -1.7020 C   0  0  0  0  0  0  0  0  0  0  0  0
   -3.5823    0.7144    0.5833 C   0  0  0  0  0  0  0  0  0  0  0  0
   -2.9494   -0.5643    0.2440 N   0  0  0  0  0  0  0  0  0  0  0  0
   -1.5854   -0.6990    0.2653 C   0  0  0  0  0  0  0  0  0  0  0  0
   -0.8303    0.2205    0.5728 O   0  0  0  0  0  0  0  0  0  0  0  0
   -0.8227   -2.0357   -0.0967 C   0  0  2  0  0  0  0  0  0  0  0  0
   -1.3674   -2.9883    1.1641 C   0  0  0  0  0  0  0  0  0  0  0  0
   -1.3841   -2.1659    2.2633 O   0  0  0  0  0  0  0  0  0  0  0  0
    0.5354   -1.7224    0.6106 N   0  0  0  0  0  0  0  0  0  0  0  0
    1.6717   -1.5041   -0.1769 C   0  0  0  0  0  0  0  0  0  0  0  0
    1.6126   -1.5405   -1.4163 O   0  0  0  0  0  0  0  0  0  0  0  0
    2.9482   -1.2298    0.5805 C   0  0  0  0  0  0  0  0  0  0  0  0
    4.1194   -1.0595   -0.3643 C   0  0  0  0  0  0  0  0  0  0  0  0
    3.9239    0.0665   -1.3385 C   0  0  0  0  0  0  0  0  0  0  0  0
    3.7332    1.3367   -0.6225 C   0  0  0  0  0  0  0  0  0  0  0  0
    3.4854    2.5813   -1.2401 N   0  0  0  0  0  0  0  0  0  0  0  0
    3.7981    1.3244    0.6611 O   0  0  0  0  0  0  0  0  0  0  0  0
  1  2  1  0
  2  3  1  0
  3  4  1  6
  3  5  1  0
  5  6  1  0
  6  7  1  0
  7  8  2  0
  7  9  1  0
  9 10  1  1
 10 11  1  0
  9 12  1  0
 12 13  1  0
 13 14  2  0
 13 15  1  0
 15 16  1  0
 16 17  1  0
 17 18  1  0
 18 19  1  0
 18 20  2  0
M  END

