
     RDKit          3D

 16 15  0  0  0  0  0  0  0  0999 V2000
    1.7709   -1.1319   -2.8791 C   0  0  0  0  0  0  0  0  0  0  0  0
    1.9435   -0.5319   -1.5356 C   0  0  0  0  0  0  0  0  0  0  0  0
    1.1372   -1.5429   -0.5763 C   0  0  2  0  0  0  0  0  0  0  0  0
   -0.2894   -1.3517   -1.3055 C   0  0  0  0  0  0  0  0  0  0  0  0
    0.7711   -0.5200    0.7418 C   0  0  2  0  0  0  0  0  0  0  0  0
   -0.0439    0.6016    0.0317 N   0  0  0  0  0  0  0  0  0  0  0  0
   -1.4408    0.5430    0.2191 C   0  0  0  0  0  0  0  0  0  0  0  0
   -1.8899   -0.3945    0.9279 O   0  0  0  0  0  0  0  0  0  0  0  0
   -2.4032    1.5024   -0.3575 C   0  0  0  0  0  0  0  0  0  0  0  0
   -3.8150    1.0822   -0.0153 C   0  0  0  0  0  0  0  0  0  0  0  0
   -4.0499   -0.3167   -0.6178 C   0  0  0  0  0  0  0  0  0  0  0  0
   -3.9545    0.8396    1.4976 C   0  0  0  0  0  0  0  0  0  0  0  0
    2.1732    0.2351    0.7628 C   0  0  0  0  0  0  0  0  0  0  0  0
    2.3221    1.3406    0.2921 O   0  0  0  0  0  0  0  0  0  0  0  0
    3.2354   -0.4992    1.3839 N   0  0  0  0  0  0  0  0  0  0  0  0
    4.5333    0.1444    1.4300 C   0  0  0  0  0  0  0  0  0  0  0  0
  1  2  1  0
  2  3  1  0
  3  4  1  6
  3  5  1  0
  5  6  1  6
  6  7  1  0
  7  8  2  0
  7  9  1  0
  9 10  1  0
 10 11  1  0
 10 12  1  0
  5 13  1  0
 13 14  2  0
 13 15  1  0
 15 16  1  0
M  END

