
     RDKit          3D

 46 48  0  0  0  0  0  0  0  0999 V2000
   -3.8265    0.7246    2.2987 C   0  0  0  0  0  0  0  0  0  0  0  0
   -3.4746    0.4766    0.9033 N   0  0  0  0  0  0  0  0  0  0  0  0
   -2.1655    0.7064    0.4154 C   0  0  0  0  0  0  0  0  0  0  0  0
   -1.3096    1.1170    1.1579 O   0  0  0  0  0  0  0  0  0  0  0  0
   -1.9614    0.3873   -1.1080 C   0  0  1  0  0  0  0  0  0  0  0  0
   -0.4676    0.7474   -1.2361 N   0  0  0  0  0  0  0  0  0  0  0  0
    0.5091    0.0952   -0.5188 C   0  0  0  0  0  0  0  0  0  0  0  0
    0.1981   -0.8435    0.2845 O   0  0  0  0  0  0  0  0  0  0  0  0
    1.9336    0.4526   -0.6500 C   0  0  0  0  0  0  0  0  0  0  0  0
    2.8239   -0.3908    0.2302 C   0  0  0  0  0  0  0  0  0  0  0  0
    4.2573   -0.0154    0.0840 C   0  0  0  0  0  0  0  0  0  0  0  0
    4.5668    1.4068    0.4416 C   0  0  0  0  0  0  0  0  0  0  0  0
    4.8715   -0.4476   -1.2253 C   0  0  0  0  0  0  0  0  0  0  0  0
   -1.7263   -1.2827   -0.8469 C   0  0  1  0  0  0  0  0  0  0  0  0
   -3.1985   -1.6553   -1.4551 C   0  0  0  0  0  0  0  0  0  0  0  0
   -1.0303   -1.4785   -2.1709 O   0  0  0  0  0  0  0  0  0  0  0  0
    5.8508    2.9314   -2.0203 C   0  0  0  0  0  0  0  0  0  0  0  0
    5.0028    2.2604   -0.7183 C   0  0  2  0  0  0  0  0  0  0  0  0
    5.9791    0.9261   -0.7707 C   0  0  0  0  0  0  0  0  0  0  0  0
    5.5348    0.0557    0.2684 N   0  0  0  0  0  0  0  0  0  0  0  0
    5.9116    0.0335    1.5196 N   0  0  0  0  0  0  0  0  0  0  0  0
    5.2862   -0.9532    2.1836 C   0  0  0  0  0  0  0  0  0  0  0  0
    4.4889   -1.5637    1.2965 N   0  0  0  0  0  0  0  0  0  0  0  0
    4.6664   -0.9297    0.1604 N   0  0  0  0  0  0  0  0  0  0  0  0
    3.9108    1.6381   -1.6702 N   0  0  0  0  0  0  0  0  0  0  0  0
    2.7237    1.2139   -0.9575 C   0  0  0  0  0  0  0  0  0  0  0  0
    2.5807    1.3628    0.3711 N   0  0  0  0  0  0  0  0  0  0  0  0
    1.4768    0.9668    1.0274 C   0  0  0  0  0  0  0  0  0  0  0  0
    0.4148    0.3746    0.3473 C   0  0  0  0  0  0  0  0  0  0  0  0
   -0.7210   -0.0417    0.9652 C   0  0  0  0  0  0  0  0  0  0  0  0
   -1.7987   -0.6512    0.2208 C   0  0  0  0  0  0  0  0  0  0  0  0
   -2.8493   -1.0166    0.9273 O   0  0  0  0  0  0  0  0  0  0  0  0
   -4.1474   -0.8085    1.1284 C   0  0  0  0  0  0  0  0  0  0  0  0
   -4.4405   -0.2995    2.4270 C   0  0  0  0  0  0  0  0  0  0  0  0
   -5.6865   -0.0290    2.8154 C   0  0  0  0  0  0  0  0  0  0  0  0
   -6.7621   -0.2246    1.9872 C   0  0  0  0  0  0  0  0  0  0  0  0
   -8.0389    0.0538    2.3855 F   0  0  0  0  0  0  0  0  0  0  0  0
   -6.4992   -0.7107    0.7443 C   0  0  0  0  0  0  0  0  0  0  0  0
   -5.2206   -1.0024    0.3090 C   0  0  0  0  0  0  0  0  0  0  0  0
   -5.0751   -1.5095   -0.9454 F   0  0  0  0  0  0  0  0  0  0  0  0
   -1.6097   -0.7835   -1.1259 C   0  0  0  0  0  0  0  0  0  0  0  0
   -2.4896   -1.3067   -1.8657 O   0  0  0  0  0  0  0  0  0  0  0  0
   -0.4497   -0.3440   -1.6719 N   0  0  0  0  0  0  0  0  0  0  0  0
   -0.2967   -0.5071   -3.1147 C   0  0  0  0  0  0  0  0  0  0  0  0
    0.5585    0.2208   -1.0136 C   0  0  0  0  0  0  0  0  0  0  0  0
    1.6990    0.6436   -1.6069 N   0  0  0  0  0  0  0  0  0  0  0  0
  1  2  1  0
  2  3  1  0
  3  4  2  0
  3  5  1  0
  5  6  1  1
  6  7  1  0
  7  8  2  0
  7  9  1  0
  9 10  1  0
 10 11  1  0
 11 12  1  0
 11 13  1  0
  5 14  1  0
 14 15  1  6
 14 16  1  0
 18 17  1  6
 18 19  1  0
 19 20  1  0
 20 21  1  0
 21 22  2  0
 22 23  1  0
 23 24  2  0
 18 25  1  0
 25 26  1  0
 26 27  2  0
 27 28  1  0
 28 29  2  0
 29 30  1  0
 30 31  2  0
 31 32  1  0
 32 33  1  0
 33 34  2  0
 34 35  1  0
 35 36  2  0
 36 37  1  0
 36 38  1  0
 38 39  2  0
 39 40  1  0
 31 41  1  0
 41 42  2  0
 41 43  1  0
 43 44  1  0
 43 45  1  0
 45 46  2  0
 24 20  1  0
 46 26  1  0
 45 29  1  0
 39 33  1  0
M  END

