
     RDKit          3D

 23 24  0  0  0  0  0  0  0  0999 V2000
    5.2071    2.0185   -0.2872 C   0  0  0  0  0  0  0  0  0  0  0  0
    4.8154    0.8483   -1.0346 C   0  0  0  0  0  0  0  0  0  0  0  0
    4.4714    0.9599   -2.4642 C   0  0  0  0  0  0  0  0  0  0  0  0
    4.8522   -0.4798   -0.4357 C   0  0  0  0  0  0  0  0  0  0  0  0
    3.9907   -0.6463    0.7590 C   0  0  0  0  0  0  0  0  0  0  0  0
    2.5567   -0.3296    0.4083 C   0  0  0  0  0  0  0  0  0  0  0  0
    2.3681    0.2046   -0.7535 O   0  0  0  0  0  0  0  0  0  0  0  0
    1.4943   -0.5607    1.1934 N   0  0  0  0  0  0  0  0  0  0  0  0
    0.0666   -0.3855    1.1866 C   0  0  1  0  0  0  0  0  0  0  0  0
   -0.0220    1.1987    0.8200 C   0  0  0  0  0  0  0  0  0  0  0  0
   -1.4552    1.5407    0.7913 C   0  0  0  0  0  0  0  0  0  0  0  0
   -2.1799    1.9611    1.8833 C   0  0  0  0  0  0  0  0  0  0  0  0
   -3.5108    2.2724    1.7778 C   0  0  0  0  0  0  0  0  0  0  0  0
   -4.1758    2.1667    0.5431 C   0  0  0  0  0  0  0  0  0  0  0  0
   -3.4443    1.7389   -0.5682 C   0  0  0  0  0  0  0  0  0  0  0  0
   -2.1360    1.4495   -0.3958 C   0  0  0  0  0  0  0  0  0  0  0  0
   -0.4633   -0.8966   -0.1974 C   0  0  0  0  0  0  0  0  0  0  0  0
    0.2182   -0.6593   -1.2099 O   0  0  0  0  0  0  0  0  0  0  0  0
   -1.6849   -1.5993   -0.2313 N   0  0  0  0  0  0  0  0  0  0  0  0
   -2.6005   -1.9946    0.8406 C   0  0  0  0  0  0  0  0  0  0  0  0
   -3.1936   -3.3006    0.3406 C   0  0  0  0  0  0  0  0  0  0  0  0
   -2.9197   -3.4133   -1.1169 C   0  0  0  0  0  0  0  0  0  0  0  0
   -2.2547   -2.0938   -1.4663 C   0  0  0  0  0  0  0  0  0  0  0  0
  1  2  1  0
  2  3  1  0
  2  4  1  0
  4  5  1  0
  5  6  1  0
  6  7  2  0
  6  8  1  0
  8  9  1  0
  9 10  1  6
 10 11  1  0
 11 12  2  0
 12 13  1  0
 13 14  2  0
 14 15  1  0
 15 16  2  0
  9 17  1  0
 17 18  2  0
 17 19  1  0
 19 20  1  0
 20 21  1  0
 21 22  1  0
 22 23  1  0
 16 11  1  0
 23 19  1  0
M  END

