
     RDKit          3D

 22 22  0  0  0  0  0  0  0  0999 V2000
    4.8052   -1.5757    2.0313 C   0  0  0  0  0  0  0  0  0  0  0  0
    5.2604   -0.1699    1.2155 C   0  0  1  0  0  0  0  0  0  0  0  0
    6.4454   -0.9133    0.5292 O   0  0  0  0  0  0  0  0  0  0  0  0
    4.2448   -0.4970   -0.0464 C   0  0  0  0  0  0  0  0  0  0  0  0
    2.9114   -0.5572    0.6045 C   0  0  0  0  0  0  0  0  0  0  0  0
    2.7023   -0.3761    1.8324 O   0  0  0  0  0  0  0  0  0  0  0  0
    1.8062   -0.8471   -0.2355 N   0  0  0  0  0  0  0  0  0  0  0  0
    0.4067   -0.9218    0.4822 C   0  0  1  0  0  0  0  0  0  0  0  0
    0.2808    0.6064    0.8882 C   0  0  0  0  0  0  0  0  0  0  0  0
    0.3181    1.5804   -0.1315 C   0  0  0  0  0  0  0  0  0  0  0  0
    0.1870    2.9020    0.4235 O   0  0  0  0  0  1  0  0  0  0  0  0
    0.4291    1.6241   -1.3403 O   0  0  0  0  0  0  0  0  0  0  0  0
   -0.4795   -1.0908   -0.7910 C   0  0  0  0  0  0  0  0  0  0  0  0
   -0.3327   -0.7038   -1.8921 O   0  0  0  0  0  0  0  0  0  0  0  0
   -1.6525   -1.8636   -0.4709 N   0  0  0  0  0  0  0  0  0  0  0  0
   -2.6357   -2.1508   -1.5420 C   0  0  0  0  0  0  0  0  0  0  0  0
   -3.1863   -0.7833   -2.0066 C   0  0  0  0  0  0  0  0  0  0  0  0
   -3.8296   -0.1617   -0.8228 C   0  0  0  0  0  0  0  0  0  0  0  0
   -5.1469   -0.3108   -0.4717 C   0  0  0  0  0  0  0  0  0  0  0  0
   -5.2722    0.4027    0.6698 N   0  0  0  0  0  0  0  0  0  0  0  0
   -4.0797    0.9659    1.0061 C   0  0  0  0  0  0  0  0  0  0  0  0
   -3.1824    0.6086    0.0681 N   0  0  0  0  0  0  0  0  0  0  0  0
  2  1  1  1
  2  3  1  0
  2  4  1  0
  4  5  1  0
  5  6  2  0
  5  7  1  0
  7  8  1  0
  8  9  1  6
  9 10  1  0
 10 11  1  0
 10 12  2  0
  8 13  1  0
 13 14  2  0
 13 15  1  0
 15 16  1  0
 16 17  1  0
 17 18  1  0
 18 19  2  0
 19 20  1  0
 20 21  1  0
 21 22  2  0
 22 18  1  0
M  RAD  1  11   2
M  END

