
     RDKit          3D

 22 22  0  0  0  0  0  0  0  0999 V2000
   -3.9506   -3.6252    0.4707 C   0  0  0  0  0  0  0  0  0  0  0  0
   -4.6838   -2.4265    0.0087 C   0  0  0  0  0  0  0  0  0  0  0  0
   -3.6459   -1.1588   -0.0711 C   0  0  2  0  0  0  0  0  0  0  0  0
   -2.6611   -1.9239   -1.1688 C   0  0  0  0  0  0  0  0  0  0  0  0
   -2.7732   -1.6144    1.2236 C   0  0  0  0  0  0  0  0  0  0  0  0
   -1.7537   -0.7394    1.5004 N   0  0  0  0  0  0  0  0  0  0  0  0
   -0.6566   -0.2746    0.8451 C   0  0  0  0  0  0  0  0  0  0  0  0
   -0.4158   -0.6652   -0.2963 O   0  0  0  0  0  0  0  0  0  0  0  0
    0.3428    0.7531    1.4722 C   0  0  2  0  0  0  0  0  0  0  0  0
   -0.4609    2.0816    0.8294 C   0  0  0  0  0  0  0  0  0  0  0  0
    0.3195    3.2593    1.2962 C   0  0  0  0  0  0  0  0  0  0  0  0
   -0.2965    4.4978    0.7773 C   0  0  0  0  0  0  0  0  0  0  0  0
   -1.4235    4.5010   -0.0188 O   0  0  0  0  0  1  0  0  0  0  0  0
    0.2397    5.5697    1.0866 O   0  0  0  0  0  0  0  0  0  0  0  0
    1.4219    0.7867    0.3175 N   0  0  0  0  0  0  0  0  0  0  0  0
    2.1104   -0.4022    0.0726 C   0  0  0  0  0  0  0  0  0  0  0  0
    1.8876   -1.4108    0.7140 O   0  0  0  0  0  0  0  0  0  0  0  0
    3.2186   -0.5145   -1.0446 C   0  0  2  0  0  0  0  0  0  0  0  0
    2.1479   -0.9093   -2.2669 C   0  0  0  0  0  0  0  0  0  0  0  0
    3.2234   -1.5619   -3.1061 C   0  0  0  0  0  0  0  0  0  0  0  0
    4.2130   -2.1929   -2.1288 C   0  0  0  0  0  0  0  0  0  0  0  0
    3.5967   -2.0296   -0.8169 N   0  0  0  0  0  0  0  0  0  0  0  0
  1  2  1  0
  2  3  1  0
  3  4  1  6
  3  5  1  0
  5  6  1  0
  6  7  1  0
  7  8  2  0
  7  9  1  0
  9 10  1  6
 10 11  1  0
 11 12  1  0
 12 13  1  0
 12 14  2  0
  9 15  1  0
 15 16  1  0
 16 17  2  0
 18 16  1  1
 18 19  1  0
 19 20  1  0
 20 21  1  0
 21 22  1  0
 22 18  1  0
M  RAD  1  13   2
M  END

