
     RDKit          3D

 20 19  0  0  0  0  0  0  0  0999 V2000
    5.3256    0.7550   -1.1819 O   0  0  0  0  0  1  0  0  0  0  0  0
    5.6582   -0.2060   -0.2341 C   0  0  0  0  0  0  0  0  0  0  0  0
    6.7087   -0.2770    0.3962 O   0  0  0  0  0  0  0  0  0  0  0  0
    4.6151   -1.2766    0.0542 C   0  0  0  0  0  0  0  0  0  0  0  0
    3.8638   -0.7105    1.2745 C   0  0  0  0  0  0  0  0  0  0  0  0
    3.2641    0.6071    0.8284 C   0  0  0  0  0  0  0  0  0  0  0  0
    2.2930    0.4131   -0.2636 N   0  0  0  0  0  0  0  0  0  0  0  0
    1.2019   -0.3145   -0.0277 C   0  0  0  0  0  0  0  0  0  0  0  0
    1.0246   -0.8258    1.1402 O   0  0  0  0  0  0  0  0  0  0  0  0
    0.0024   -0.6645   -1.0180 C   0  0  2  0  0  0  0  0  0  0  0  0
   -0.1387    0.8200   -1.7316 C   0  0  0  0  0  0  0  0  0  0  0  0
   -0.5338    2.0345   -0.5230 S   0  0  0  0  0  0  0  0  0  0  0  0
   -1.1250   -0.4587    0.0626 N   0  0  0  0  0  0  0  0  0  0  0  0
   -2.4343   -0.3630   -0.5050 C   0  0  0  0  0  0  0  0  0  0  0  0
   -2.6865   -0.4416   -1.7261 O   0  0  0  0  0  0  0  0  0  0  0  0
   -3.5958   -0.1499    0.4307 C   0  0  0  0  0  0  0  0  0  0  0  0
   -4.9061    0.0073   -0.2838 C   0  0  0  0  0  0  0  0  0  0  0  0
   -5.9151    0.2124    0.7794 C   0  0  0  0  0  0  0  0  0  0  0  0
   -5.7530   -0.4639    1.9615 O   0  0  0  0  0  1  0  0  0  0  0  0
   -6.8689    0.9867    0.5672 O   0  0  0  0  0  0  0  0  0  0  0  0
  1  2  1  0
  2  3  2  0
  2  4  1  0
  4  5  1  0
  5  6  1  0
  6  7  1  0
  7  8  1  0
  8  9  2  0
  8 10  1  0
 10 11  1  6
 11 12  1  0
 10 13  1  0
 13 14  1  0
 14 15  2  0
 14 16  1  0
 16 17  1  0
 17 18  1  0
 18 19  1  0
 18 20  2  0
M  RAD  2   1   2  19   2
M  END

