
     RDKit          3D

 53 56  0  0  0  0  0  0  0  0999 V2000
    5.9311    2.9627    0.6907 C   0  0  0  0  0  0  0  0  0  0  0  0
    4.9969    2.0278    1.4867 C   0  0  0  0  0  0  0  0  0  0  0  0
    4.2925    1.2624    0.2529 C   0  0  2  0  0  0  0  0  0  0  0  0
    3.6751    2.6484   -0.3741 C   0  0  0  0  0  0  0  0  0  0  0  0
    2.9474    0.8788    1.0655 C   0  0  0  0  0  0  0  0  0  0  0  0
    2.1013    0.1519    0.1022 C   0  0  0  0  0  0  0  0  0  0  0  0
    2.5084    0.0347   -1.0837 O   0  0  0  0  0  0  0  0  0  0  0  0
    0.8691   -0.4556    0.2986 N   0  0  0  0  0  0  0  0  0  0  0  0
    0.1729   -1.1626   -0.8898 C   0  0  2  0  0  0  0  0  0  0  0  0
   -1.2586   -1.2939   -0.1959 C   0  0  0  0  0  0  0  0  0  0  0  0
   -1.3984   -1.3290    1.0012 O   0  0  0  0  0  0  0  0  0  0  0  0
   -2.3623   -1.3610   -1.0699 N   0  0  0  0  0  0  0  0  0  0  0  0
   -3.6703   -1.4817   -0.4388 C   0  0  0  0  0  0  0  0  0  0  0  0
   -3.9332   -0.3478    0.5024 C   0  0  0  0  0  0  0  0  0  0  0  0
   -3.8581    0.9365   -0.2296 C   0  0  0  0  0  0  0  0  0  0  0  0
   -4.8126    1.6574   -0.8766 C   0  0  0  0  0  0  0  0  0  0  0  0
   -4.2768    2.7933   -1.4046 N   0  0  0  0  0  0  0  0  0  0  0  0
   -2.9788    2.7591   -1.0719 C   0  0  0  0  0  0  0  0  0  0  0  0
   -2.7118    1.6563   -0.3695 N   0  0  0  0  0  0  0  0  0  0  0  0
    0.5419   -2.8006   -0.5109 C   0  0  1  0  0  0  0  0  0  0  0  0
    2.1295   -2.6353   -0.5388 C   0  0  0  0  0  0  0  0  0  0  0  0
    0.3898   -2.7371    1.0847 C   0  0  0  0  0  0  0  0  0  0  0  0
    0.7050   -4.1646    1.4593 C   0  0  0  0  0  0  0  0  0  0  0  0
    5.3987   -0.9460    2.2418 C   0  0  0  0  0  0  0  0  0  0  0  0
    4.1885   -0.9624    1.0800 C   0  0  2  0  0  0  0  0  0  0  0  0
    4.4427    0.6074    0.5732 C   0  0  0  0  0  0  0  0  0  0  0  0
    5.7840    0.6737    0.1012 N   0  0  0  0  0  0  0  0  0  0  0  0
    6.7759    0.9898    0.9419 N   0  0  0  0  0  0  0  0  0  0  0  0
    7.9446    0.9982    0.3109 C   0  0  0  0  0  0  0  0  0  0  0  0
    7.6260    0.6703   -0.9675 N   0  0  0  0  0  0  0  0  0  0  0  0
    6.3237    0.4782   -1.0787 N   0  0  0  0  0  0  0  0  0  0  0  0
    3.0971   -0.5141    2.1315 N   0  0  0  0  0  0  0  0  0  0  0  0
    1.7844   -0.3687    1.6110 C   0  0  0  0  0  0  0  0  0  0  0  0
    0.7801    0.0052    2.4029 N   0  0  0  0  0  0  0  0  0  0  0  0
   -0.4705    0.1478    1.9259 C   0  0  0  0  0  0  0  0  0  0  0  0
   -0.7413   -0.0909    0.6008 C   0  0  0  0  0  0  0  0  0  0  0  0
   -2.0260    0.0460    0.0672 C   0  0  0  0  0  0  0  0  0  0  0  0
   -2.2576   -0.2033   -1.2707 C   0  0  0  0  0  0  0  0  0  0  0  0
   -3.5112   -0.0849   -1.8602 O   0  0  0  0  0  0  0  0  0  0  0  0
   -4.5670    0.2979   -1.0725 C   0  0  0  0  0  0  0  0  0  0  0  0
   -5.2994    1.4418   -1.3221 C   0  0  0  0  0  0  0  0  0  0  0  0
   -6.3380    1.7518   -0.4870 C   0  0  0  0  0  0  0  0  0  0  0  0
   -6.7034    0.9882    0.5977 C   0  0  0  0  0  0  0  0  0  0  0  0
   -7.7543    1.3466    1.4021 F   0  0  0  0  0  0  0  0  0  0  0  0
   -5.9736   -0.1525    0.8471 C   0  0  0  0  0  0  0  0  0  0  0  0
   -4.9083   -0.4877    0.0061 C   0  0  0  0  0  0  0  0  0  0  0  0
   -4.1860   -1.5971    0.2348 F   0  0  0  0  0  0  0  0  0  0  0  0
   -1.1768   -0.5892   -2.0485 C   0  0  0  0  0  0  0  0  0  0  0  0
   -1.3067   -0.8363   -3.2848 O   0  0  0  0  0  0  0  0  0  0  0  0
    0.0562   -0.7141   -1.5069 N   0  0  0  0  0  0  0  0  0  0  0  0
    1.1959   -1.1179   -2.3127 C   0  0  0  0  0  0  0  0  0  0  0  0
    0.2986   -0.4751   -0.2058 C   0  0  0  0  0  0  0  0  0  0  0  0
    1.5236   -0.5971    0.3415 N   0  0  0  0  0  0  0  0  0  0  0  0
  1  2  1  0
  2  3  1  0
  3  4  1  6
  3  5  1  0
  5  6  1  0
  6  7  2  0
  6  8  1  0
  9  8  1  1
  9 10  1  0
 10 11  2  0
 10 12  1  0
 12 13  1  0
 13 14  1  0
 14 15  1  0
 15 16  2  0
 16 17  1  0
 17 18  1  0
 18 19  2  0
  9 20  1  0
 20 21  1  1
 20 22  1  0
 22 23  1  0
 25 24  1  1
 25 26  1  0
 26 27  1  0
 27 28  1  0
 28 29  2  0
 29 30  1  0
 30 31  2  0
 25 32  1  0
 32 33  1  0
 33 34  2  0
 34 35  1  0
 35 36  2  0
 36 37  1  0
 37 38  2  0
 38 39  1  0
 39 40  1  0
 40 41  2  0
 41 42  1  0
 42 43  2  0
 43 44  1  0
 43 45  1  0
 45 46  2  0
 46 47  1  0
 38 48  1  0
 48 49  2  0
 48 50  1  0
 50 51  1  0
 50 52  1  0
 52 53  2  0
 19 15  1  0
 31 27  1  0
 53 33  1  0
 52 36  1  0
 46 40  1  0
M  END

