
     RDKit          3D

 22 22  0  0  0  0  0  0  0  0999 V2000
   -4.0503   -3.9888   -0.1832 C   0  0  0  0  0  0  0  0  0  0  0  0
   -3.3259   -2.8689   -0.8659 C   0  0  0  0  0  0  0  0  0  0  0  0
   -4.1674   -2.0391   -1.7146 C   0  0  0  0  0  0  0  0  0  0  0  0
   -2.4767   -2.1300    0.1234 C   0  0  0  0  0  0  0  0  0  0  0  0
   -1.7948   -1.0758   -0.6055 N   0  0  0  0  0  0  0  0  0  0  0  0
   -0.7842   -0.3777    0.1535 C   0  0  0  0  0  0  0  0  0  0  0  0
   -0.5352   -0.6175    1.3497 O   0  0  0  0  0  0  0  0  0  0  0  0
    0.0604    0.7008   -0.5438 C   0  0  2  0  0  0  0  0  0  0  0  0
   -0.7112    1.6093   -1.4299 C   0  0  0  0  0  0  0  0  0  0  0  0
   -1.6848    2.4327   -0.6590 C   0  0  0  0  0  0  0  0  0  0  0  0
   -1.3258    3.6126    0.0456 C   0  0  0  0  0  0  0  0  0  0  0  0
   -2.4216    4.1661    0.5971 N   0  0  0  0  0  0  0  0  0  0  0  0
   -3.4350    3.3877    0.2598 C   0  0  0  0  0  0  0  0  0  0  0  0
   -2.9935    2.3292   -0.5171 N   0  0  0  0  0  0  0  0  0  0  0  0
    1.0580   -0.0923   -1.2324 N   0  0  0  0  0  0  0  0  0  0  0  0
    2.2633   -0.4802   -0.5983 C   0  0  0  0  0  0  0  0  0  0  0  0
    2.5818   -0.1704    0.5695 O   0  0  0  0  0  0  0  0  0  0  0  0
    3.2791   -1.3374   -1.3665 C   0  0  0  0  0  0  0  0  0  0  0  0
    4.6171   -0.8371   -1.0570 C   0  0  0  0  0  0  0  0  0  0  0  0
    5.0717   -0.8201    0.3322 C   0  0  0  0  0  0  0  0  0  0  0  0
    6.1441    0.0967    0.5446 O   0  0  0  0  0  1  0  0  0  0  0  0
    4.6308   -1.4997    1.2757 O   0  0  0  0  0  0  0  0  0  0  0  0
  1  2  1  0
  2  3  1  0
  2  4  1  0
  4  5  1  0
  5  6  1  0
  6  7  2  0
  6  8  1  0
  8  9  1  6
  9 10  1  0
 10 11  2  0
 11 12  1  0
 12 13  1  0
 13 14  2  0
  8 15  1  0
 15 16  1  0
 16 17  2  0
 16 18  1  0
 18 19  1  0
 19 20  1  0
 20 21  1  0
 20 22  2  0
 14 10  1  0
M  RAD  1  21   2
M  END

