
     RDKit          3D

 52 54  0  0  0  0  0  0  0  0999 V2000
    4.4957    3.8369   -0.0492 C   0  0  0  0  0  0  0  0  0  0  0  0
    5.2239    2.4951   -0.1988 C   0  0  0  0  0  0  0  0  0  0  0  0
    4.2007    1.4383    0.5621 C   0  0  2  0  0  0  0  0  0  0  0  0
    5.1754    0.1572    0.2650 C   0  0  0  0  0  0  0  0  0  0  0  0
    3.3064    1.2068   -0.7852 C   0  0  0  0  0  0  0  0  0  0  0  0
    2.2466    0.2435   -0.3776 C   0  0  0  0  0  0  0  0  0  0  0  0
    2.1730   -0.2110    0.7886 O   0  0  0  0  0  0  0  0  0  0  0  0
    1.3274   -0.1419   -1.3418 N   0  0  0  0  0  0  0  0  0  0  0  0
    0.1759   -1.1433   -1.0230 C   0  0  1  0  0  0  0  0  0  0  0  0
    0.9951   -1.9972    0.1146 C   0  0  0  0  0  0  0  0  0  0  0  0
   -0.0036   -3.0079    0.4954 C   0  0  0  0  0  0  0  0  0  0  0  0
   -0.1269   -4.1560   -0.2402 O   0  0  0  0  0  1  0  0  0  0  0  0
   -0.7406   -2.8266    1.4862 O   0  0  0  0  0  0  0  0  0  0  0  0
   -0.6429   -0.2402   -0.0239 C   0  0  0  0  0  0  0  0  0  0  0  0
   -0.1529    0.8562    0.2390 O   0  0  0  0  0  0  0  0  0  0  0  0
   -1.8484   -0.6736    0.5165 N   0  0  0  0  0  0  0  0  0  0  0  0
   -2.5824    0.1780    1.4322 C   0  0  0  0  0  0  0  0  0  0  0  0
   -2.9710    1.4988    0.8081 C   0  0  0  0  0  0  0  0  0  0  0  0
   -3.8307    1.3122   -0.3835 C   0  0  0  0  0  0  0  0  0  0  0  0
   -5.0814    0.5968   -0.0108 C   0  0  0  0  0  0  0  0  0  0  0  0
   -6.0322    0.3846   -1.0579 N   0  0  0  0  0  0  0  0  0  0  0  0
   -5.3070    0.1931    1.1581 O   0  0  0  0  0  0  0  0  0  0  0  0
   -3.6696    2.4436   -0.2759 C   0  0  0  0  0  0  0  0  0  0  0  0
   -4.2774    0.9869   -0.8417 C   0  0  2  0  0  0  0  0  0  0  0  0
   -5.7656    1.2967   -0.1373 C   0  0  0  0  0  0  0  0  0  0  0  0
   -6.5657    0.1411   -0.4714 N   0  0  0  0  0  0  0  0  0  0  0  0
   -6.7790   -1.0038    0.1096 N   0  0  0  0  0  0  0  0  0  0  0  0
   -7.6228   -1.7869   -0.5915 C   0  0  0  0  0  0  0  0  0  0  0  0
   -7.9344   -1.0497   -1.6724 N   0  0  0  0  0  0  0  0  0  0  0  0
   -7.2902    0.0982   -1.5775 N   0  0  0  0  0  0  0  0  0  0  0  0
   -3.7830    0.1427    0.3999 N   0  0  0  0  0  0  0  0  0  0  0  0
   -2.4265    0.0941    0.6858 C   0  0  0  0  0  0  0  0  0  0  0  0
   -2.0754   -0.6418    1.7553 N   0  0  0  0  0  0  0  0  0  0  0  0
   -0.8076   -0.7916    2.1660 C   0  0  0  0  0  0  0  0  0  0  0  0
    0.1861   -0.1546    1.4497 C   0  0  0  0  0  0  0  0  0  0  0  0
    1.5259   -0.2342    1.7754 C   0  0  0  0  0  0  0  0  0  0  0  0
    2.5007    0.4186    1.0343 C   0  0  0  0  0  0  0  0  0  0  0  0
    3.8407    0.3345    1.3662 O   0  0  0  0  0  0  0  0  0  0  0  0
    4.8025   -0.1830    0.5004 C   0  0  0  0  0  0  0  0  0  0  0  0
    5.8549    0.6293    0.1018 C   0  0  0  0  0  0  0  0  0  0  0  0
    6.8190    0.1417   -0.7536 C   0  0  0  0  0  0  0  0  0  0  0  0
    6.7622   -1.1599   -1.2327 C   0  0  0  0  0  0  0  0  0  0  0  0
    7.7373   -1.6080   -2.0800 F   0  0  0  0  0  0  0  0  0  0  0  0
    5.7256   -1.9413   -0.8326 C   0  0  0  0  0  0  0  0  0  0  0  0
    4.7604   -1.4627    0.0200 C   0  0  0  0  0  0  0  0  0  0  0  0
    3.7237   -2.2542    0.4162 F   0  0  0  0  0  0  0  0  0  0  0  0
    2.1217    1.1695   -0.0605 C   0  0  0  0  0  0  0  0  0  0  0  0
    2.9847    1.7861   -0.7699 O   0  0  0  0  0  0  0  0  0  0  0  0
    0.8180    1.2297   -0.3536 N   0  0  0  0  0  0  0  0  0  0  0  0
    0.4446    2.0346   -1.5218 C   0  0  0  0  0  0  0  0  0  0  0  0
   -0.1488    0.6072    0.3471 C   0  0  0  0  0  0  0  0  0  0  0  0
   -1.4618    0.7170   -0.0159 N   0  0  0  0  0  0  0  0  0  0  0  0
  1  2  1  0
  2  3  1  0
  3  4  1  6
  3  5  1  0
  5  6  1  0
  6  7  2  0
  6  8  1  0
  8  9  1  0
  9 10  1  1
 10 11  1  0
 11 12  1  0
 11 13  2  0
  9 14  1  0
 14 15  2  0
 14 16  1  0
 16 17  1  0
 17 18  1  0
 18 19  1  0
 19 20  1  0
 20 21  1  0
 20 22  2  0
 24 23  1  1
 24 25  1  0
 25 26  1  0
 26 27  1  0
 27 28  2  0
 28 29  1  0
 29 30  2  0
 24 31  1  0
 31 32  1  0
 32 33  2  0
 33 34  1  0
 34 35  2  0
 35 36  1  0
 36 37  2  0
 37 38  1  0
 38 39  1  0
 39 40  2  0
 40 41  1  0
 41 42  2  0
 42 43  1  0
 42 44  1  0
 44 45  2  0
 45 46  1  0
 37 47  1  0
 47 48  2  0
 47 49  1  0
 49 50  1  0
 49 51  1  0
 51 52  2  0
 30 26  1  0
 52 32  1  0
 51 35  1  0
 45 39  1  0
M  RAD  1  12   2
M  END

