
     RDKit          3D

 48 51  0  0  0  0  0  0  0  0999 V2000
    4.9103    2.1714    1.5295 C   0  0  0  0  0  0  0  0  0  0  0  0
    4.2049    1.3863    0.5005 C   0  0  0  0  0  0  0  0  0  0  0  0
    3.4261    1.9659   -0.2806 O   0  0  0  0  0  0  0  0  0  0  0  0
    4.3811   -0.0461    0.3924 N   0  0  0  0  0  0  0  0  0  0  0  0
    3.5041   -0.5488   -0.8421 C   0  0  1  0  0  0  0  0  0  0  0  0
    3.9328   -2.1480   -0.4706 C   0  0  0  0  0  0  0  0  0  0  0  0
    2.0960   -0.6046   -0.1383 C   0  0  0  0  0  0  0  0  0  0  0  0
    1.8683   -1.7243    0.3720 O   0  0  0  0  0  0  0  0  0  0  0  0
    1.2446    0.4673   -0.0848 N   0  0  0  0  0  0  0  0  0  0  0  0
   -0.0597    0.5763    0.4347 C   0  0  0  0  0  0  0  0  0  0  0  0
   -0.9230   -0.3138   -0.4826 C   0  0  0  0  0  0  0  0  0  0  0  0
   -2.3407   -0.3020   -0.1290 C   0  0  0  0  0  0  0  0  0  0  0  0
   -3.0050   -1.3469    0.3380 C   0  0  0  0  0  0  0  0  0  0  0  0
   -4.3957   -1.3059    0.6028 C   0  0  0  0  0  0  0  0  0  0  0  0
   -5.0554   -0.1089    0.3481 C   0  0  0  0  0  0  0  0  0  0  0  0
   -6.4530    0.0217    0.5978 O   0  0  0  0  0  0  0  0  0  0  0  0
   -4.3309    0.9587   -0.1456 C   0  0  0  0  0  0  0  0  0  0  0  0
   -3.0049    0.9017   -0.3868 C   0  0  0  0  0  0  0  0  0  0  0  0
    4.1703   -1.1066   -2.6359 C   0  0  0  0  0  0  0  0  0  0  0  0
    4.8490   -0.1425   -1.5056 C   0  0  2  0  0  0  0  0  0  0  0  0
    6.0479   -1.2127   -1.1819 C   0  0  0  0  0  0  0  0  0  0  0  0
    6.7721   -0.4684   -0.1475 N   0  0  0  0  0  0  0  0  0  0  0  0
    7.7524    0.3722   -0.3267 N   0  0  0  0  0  0  0  0  0  0  0  0
    8.1364    0.8377    0.8920 C   0  0  0  0  0  0  0  0  0  0  0  0
    7.3616    0.2550    1.8067 N   0  0  0  0  0  0  0  0  0  0  0  0
    6.5277   -0.5449    1.1570 N   0  0  0  0  0  0  0  0  0  0  0  0
    3.9418   -0.6625   -0.3546 N   0  0  0  0  0  0  0  0  0  0  0  0
    2.5322   -0.4779   -0.5234 C   0  0  0  0  0  0  0  0  0  0  0  0
    2.0811    0.1176   -1.6353 N   0  0  0  0  0  0  0  0  0  0  0  0
    0.7856    0.3453   -1.9051 C   0  0  0  0  0  0  0  0  0  0  0  0
   -0.1625   -0.0596   -0.9752 C   0  0  0  0  0  0  0  0  0  0  0  0
   -1.4957    0.1229   -1.1492 C   0  0  0  0  0  0  0  0  0  0  0  0
   -2.4348   -0.3038   -0.1767 C   0  0  0  0  0  0  0  0  0  0  0  0
   -3.6956   -0.0764   -0.4513 O   0  0  0  0  0  0  0  0  0  0  0  0
   -4.8311    0.5166   -0.1562 C   0  0  0  0  0  0  0  0  0  0  0  0
   -5.3432    1.4541   -1.1030 C   0  0  0  0  0  0  0  0  0  0  0  0
   -6.4951    2.1318   -0.9278 C   0  0  0  0  0  0  0  0  0  0  0  0
   -7.2285    1.9320    0.2003 C   0  0  0  0  0  0  0  0  0  0  0  0
   -8.3898    2.6495    0.3252 F   0  0  0  0  0  0  0  0  0  0  0  0
   -6.7957    1.0553    1.1350 C   0  0  0  0  0  0  0  0  0  0  0  0
   -5.6099    0.3585    0.9526 C   0  0  0  0  0  0  0  0  0  0  0  0
   -5.2962   -0.5103    1.9606 F   0  0  0  0  0  0  0  0  0  0  0  0
   -1.9088   -0.8998    0.9241 C   0  0  0  0  0  0  0  0  0  0  0  0
   -2.6101   -1.3373    1.8787 O   0  0  0  0  0  0  0  0  0  0  0  0
   -0.5732   -1.0791    1.0922 N   0  0  0  0  0  0  0  0  0  0  0  0
   -0.0316   -1.7257    2.2916 C   0  0  0  0  0  0  0  0  0  0  0  0
    0.3035   -0.6722    0.1684 C   0  0  0  0  0  0  0  0  0  0  0  0
    1.6403   -0.8688    0.3709 N   0  0  0  0  0  0  0  0  0  0  0  0
  1  2  1  0
  2  3  2  0
  2  4  1  0
  4  5  1  0
  5  6  1  1
  5  7  1  0
  7  8  2  0
  7  9  1  0
  9 10  1  0
 10 11  1  0
 11 12  1  0
 12 13  2  0
 13 14  1  0
 14 15  2  0
 15 16  1  0
 15 17  1  0
 17 18  2  0
 20 19  1  6
 20 21  1  0
 21 22  1  0
 22 23  1  0
 23 24  2  0
 24 25  1  0
 25 26  2  0
 20 27  1  0
 27 28  1  0
 28 29  2  0
 29 30  1  0
 30 31  2  0
 31 32  1  0
 32 33  2  0
 33 34  1  0
 34 35  1  0
 35 36  2  0
 36 37  1  0
 37 38  2  0
 38 39  1  0
 38 40  1  0
 40 41  2  0
 41 42  1  0
 33 43  1  0
 43 44  2  0
 43 45  1  0
 45 46  1  0
 45 47  1  0
 47 48  2  0
 18 12  1  0
 26 22  1  0
 48 28  1  0
 47 31  1  0
 41 35  1  0
M  END

