
     RDKit          3D

 26 26  0  0  0  0  0  0  0  0999 V2000
    5.3913    1.9438   -1.4805 O   0  0  0  0  0  1  0  0  0  0  0  0
    5.1479    3.0502   -0.6788 C   0  0  0  0  0  0  0  0  0  0  0  0
    5.7543    4.1207   -0.8951 O   0  0  0  0  0  0  0  0  0  0  0  0
    4.1787    2.9744    0.4261 C   0  0  0  0  0  0  0  0  0  0  0  0
    3.5640    1.6135    0.5406 C   0  0  0  0  0  0  0  0  0  0  0  0
    2.5620    1.5699    1.6886 C   0  0  0  0  0  0  0  0  0  0  0  0
    1.9679    0.2385    1.7919 N   0  0  0  0  0  0  0  0  0  0  0  0
    1.2379   -0.3356    0.7171 C   0  0  0  0  0  0  0  0  0  0  0  0
    1.0733    0.2396   -0.3271 O   0  0  0  0  0  0  0  0  0  0  0  0
    0.6533   -1.8039    1.0015 C   0  0  2  0  0  0  0  0  0  0  0  0
    2.0600   -2.5966    0.5506 C   0  0  0  0  0  0  0  0  0  0  0  0
    1.6496   -3.9896    0.7673 C   0  0  0  0  0  0  0  0  0  0  0  0
    1.2960   -4.7981   -0.3002 O   0  0  0  0  0  1  0  0  0  0  0  0
    1.6203   -4.4498    1.9408 O   0  0  0  0  0  0  0  0  0  0  0  0
   -0.0233   -2.0122   -0.4092 N   0  0  0  0  0  0  0  0  0  0  0  0
   -1.4560   -1.7757   -0.4243 C   0  0  0  0  0  0  0  0  0  0  0  0
   -1.9562   -1.4403    0.6776 O   0  0  0  0  0  0  0  0  0  0  0  0
   -2.2198   -1.9352   -1.6837 C   0  0  0  0  0  0  0  0  0  0  0  0
   -3.6501   -1.5707   -1.4920 C   0  0  0  0  0  0  0  0  0  0  0  0
   -3.8531   -0.1607   -1.0943 C   0  0  0  0  0  0  0  0  0  0  0  0
   -3.9569    0.8116   -2.1100 C   0  0  0  0  0  0  0  0  0  0  0  0
   -4.1637    2.1303   -1.7333 C   0  0  0  0  0  0  0  0  0  0  0  0
   -4.2703    2.5197   -0.4289 C   0  0  0  0  0  0  0  0  0  0  0  0
   -4.4762    3.8409   -0.1005 O   0  0  0  0  0  0  0  0  0  0  0  0
   -4.1677    1.5588    0.5777 C   0  0  0  0  0  0  0  0  0  0  0  0
   -3.9631    0.2565    0.2010 C   0  0  0  0  0  0  0  0  0  0  0  0
  1  2  1  0
  2  3  2  0
  2  4  1  0
  4  5  1  0
  5  6  1  0
  6  7  1  0
  7  8  1  0
  8  9  2  0
  8 10  1  0
 10 11  1  6
 11 12  1  0
 12 13  1  0
 12 14  2  0
 10 15  1  0
 15 16  1  0
 16 17  2  0
 16 18  1  0
 18 19  1  0
 19 20  1  0
 20 21  2  0
 21 22  1  0
 22 23  2  0
 23 24  1  0
 23 25  1  0
 25 26  2  0
 26 20  1  0
M  RAD  2   1   2  13   2
M  END

