
     RDKit          3D

 46 48  0  0  0  0  0  0  0  0999 V2000
    0.3341   -0.3362   -2.7845 C   0  0  0  0  0  0  0  0  0  0  0  0
   -0.4052    0.2308   -1.5833 C   0  0  0  0  0  0  0  0  0  0  0  0
    0.1894    1.5371   -1.2884 C   0  0  0  0  0  0  0  0  0  0  0  0
    0.0766   -0.8481   -0.4137 C   0  0  2  0  0  0  0  0  0  0  0  0
   -0.7604   -0.1263    0.7255 N   0  0  0  0  0  0  0  0  0  0  0  0
   -2.1560   -0.1463    0.5366 C   0  0  0  0  0  0  0  0  0  0  0  0
   -2.6178   -0.7223   -0.4992 O   0  0  0  0  0  0  0  0  0  0  0  0
   -3.1257    0.4536    1.4552 C   0  0  0  0  0  0  0  0  0  0  0  0
   -4.5412    0.2718    0.9954 C   0  0  0  0  0  0  0  0  0  0  0  0
   -5.4785    0.8127    1.8216 O   0  0  0  0  0  0  0  0  0  0  0  0
    1.4937   -0.2036   -0.0519 C   0  0  0  0  0  0  0  0  0  0  0  0
    1.6590    0.5710    0.8387 O   0  0  0  0  0  0  0  0  0  0  0  0
    2.5301   -0.6379   -0.8858 N   0  0  0  0  0  0  0  0  0  0  0  0
    3.8997   -0.3406   -0.9231 C   0  0  0  0  0  0  0  0  0  0  0  0
    4.7006   -0.6951    0.2749 C   0  0  0  0  0  0  0  0  0  0  0  0
    4.2015    0.1228    1.7820 S   0  0  0  0  0  0  0  0  0  0  0  0
    3.6366    0.4407    0.0529 C   0  0  0  0  0  0  0  0  0  0  0  0
    4.3143   -1.0641    0.0201 C   0  0  2  0  0  0  0  0  0  0  0  0
    5.6552   -0.6049   -0.8366 C   0  0  0  0  0  0  0  0  0  0  0  0
    6.3144    0.3739   -0.0621 N   0  0  0  0  0  0  0  0  0  0  0  0
    6.0740    1.6551   -0.1538 N   0  0  0  0  0  0  0  0  0  0  0  0
    6.8550    2.3070    0.7044 C   0  0  0  0  0  0  0  0  0  0  0  0
    7.5867    1.3734    1.3288 N   0  0  0  0  0  0  0  0  0  0  0  0
    7.2350    0.1965    0.8394 N   0  0  0  0  0  0  0  0  0  0  0  0
    3.5441   -1.4679   -1.2921 N   0  0  0  0  0  0  0  0  0  0  0  0
    2.1460   -1.4498   -1.2374 C   0  0  0  0  0  0  0  0  0  0  0  0
    1.4764   -1.7873   -2.3342 N   0  0  0  0  0  0  0  0  0  0  0  0
    0.1338   -1.8085   -2.4071 C   0  0  0  0  0  0  0  0  0  0  0  0
   -0.5404   -1.4505   -1.2479 C   0  0  0  0  0  0  0  0  0  0  0  0
   -1.9075   -1.4597   -1.2818 C   0  0  0  0  0  0  0  0  0  0  0  0
   -2.5818   -1.1022   -0.1243 C   0  0  0  0  0  0  0  0  0  0  0  0
   -3.9629   -1.1178   -0.1790 O   0  0  0  0  0  0  0  0  0  0  0  0
   -4.6651    0.0323    0.0581 C   0  0  0  0  0  0  0  0  0  0  0  0
   -5.5644    0.0330    1.1217 C   0  0  0  0  0  0  0  0  0  0  0  0
   -6.2987    1.1618    1.4076 C   0  0  0  0  0  0  0  0  0  0  0  0
   -6.1431    2.2888    0.6417 C   0  0  0  0  0  0  0  0  0  0  0  0
   -6.8658    3.3952    0.9255 F   0  0  0  0  0  0  0  0  0  0  0  0
   -5.2552    2.2848   -0.4067 C   0  0  0  0  0  0  0  0  0  0  0  0
   -4.5129    1.1628   -0.7056 C   0  0  0  0  0  0  0  0  0  0  0  0
   -3.6365    1.1575   -1.7396 F   0  0  0  0  0  0  0  0  0  0  0  0
   -1.8900   -0.7542    1.0064 C   0  0  0  0  0  0  0  0  0  0  0  0
   -2.5040   -0.4334    2.0451 O   0  0  0  0  0  0  0  0  0  0  0  0
   -0.5252   -0.7614    0.9873 N   0  0  0  0  0  0  0  0  0  0  0  0
    0.2093   -0.3903    2.1933 C   0  0  0  0  0  0  0  0  0  0  0  0
    0.1543   -1.1058   -0.1277 C   0  0  0  0  0  0  0  0  0  0  0  0
    1.5185   -1.1052   -0.1218 N   0  0  0  0  0  0  0  0  0  0  0  0
  1  2  1  0
  2  3  1  0
  2  4  1  0
  4  5  1  1
  5  6  1  0
  6  7  2  0
  6  8  1  0
  8  9  1  0
  9 10  1  0
  4 11  1  0
 11 12  2  0
 11 13  1  0
 13 14  1  0
 14 15  1  0
 15 16  1  0
 18 17  1  6
 18 19  1  0
 19 20  1  0
 20 21  1  0
 21 22  2  0
 22 23  1  0
 23 24  2  0
 18 25  1  0
 25 26  1  0
 26 27  2  0
 27 28  1  0
 28 29  2  0
 29 30  1  0
 30 31  2  0
 31 32  1  0
 32 33  1  0
 33 34  2  0
 34 35  1  0
 35 36  2  0
 36 37  1  0
 36 38  1  0
 38 39  2  0
 39 40  1  0
 31 41  1  0
 41 42  2  0
 41 43  1  0
 43 44  1  0
 43 45  1  0
 45 46  2  0
 24 20  1  0
 46 26  1  0
 45 29  1  0
 39 33  1  0
M  END

