
     RDKit          3D

 58 61  0  0  0  0  0  0  0  0999 V2000
    5.8433    3.2250   -0.0446 C   0  0  0  0  0  0  0  0  0  0  0  0
    4.7610    2.0046    0.4133 C   0  0  2  0  0  0  0  0  0  0  0  0
    5.5964    0.9098   -0.5054 C   0  0  0  0  0  0  0  0  0  0  0  0
    4.9090   -0.3459   -0.3447 N   0  0  0  0  0  0  0  0  0  0  0  0
    5.1462   -1.2328    0.6046 N   0  0  0  0  0  0  0  0  0  0  0  0
    4.3475   -2.2858    0.4349 C   0  0  0  0  0  0  0  0  0  0  0  0
    3.5910   -2.0593   -0.6430 N   0  0  0  0  0  0  0  0  0  0  0  0
    3.9463   -0.8768   -1.1027 N   0  0  0  0  0  0  0  0  0  0  0  0
    3.7613    2.3838   -0.7481 N   0  0  0  0  0  0  0  0  0  0  0  0
    2.4592    1.8244   -0.6116 C   0  0  0  0  0  0  0  0  0  0  0  0
    1.5443    2.0736   -1.5585 N   0  0  0  0  0  0  0  0  0  0  0  0
    0.2862    1.6063   -1.4974 C   0  0  0  0  0  0  0  0  0  0  0  0
   -0.1189    0.8260   -0.4180 C   0  0  0  0  0  0  0  0  0  0  0  0
   -1.4086    0.3359   -0.3368 C   0  0  0  0  0  0  0  0  0  0  0  0
   -1.7271   -0.4338    0.7746 C   0  0  0  0  0  0  0  0  0  0  0  0
   -2.9802   -0.9688    0.9523 O   0  0  0  0  0  0  0  0  0  0  0  0
   -4.0231   -0.7943    0.0576 C   0  0  0  0  0  0  0  0  0  0  0  0
   -3.8639   -0.0551   -1.0943 C   0  0  0  0  0  0  0  0  0  0  0  0
   -4.8782    0.1384   -2.0046 C   0  0  0  0  0  0  0  0  0  0  0  0
   -6.1166   -0.4216   -1.7763 C   0  0  0  0  0  0  0  0  0  0  0  0
   -7.1422   -0.2421   -2.6695 F   0  0  0  0  0  0  0  0  0  0  0  0
   -6.2795   -1.1615   -0.6252 C   0  0  0  0  0  0  0  0  0  0  0  0
   -5.2621   -1.3543    0.2856 C   0  0  0  0  0  0  0  0  0  0  0  0
   -5.5133   -2.0944    1.3860 F   0  0  0  0  0  0  0  0  0  0  0  0
   -0.7457   -0.6546    1.7119 C   0  0  0  0  0  0  0  0  0  0  0  0
   -1.0361   -1.3599    2.7313 O   0  0  0  0  0  0  0  0  0  0  0  0
    0.5023   -0.1759    1.6259 N   0  0  0  0  0  0  0  0  0  0  0  0
    1.4956   -0.4559    2.6696 C   0  0  0  0  0  0  0  0  0  0  0  0
    0.8293    0.5769    0.5478 C   0  0  0  0  0  0  0  0  0  0  0  0
    2.0769    1.0682    0.4403 N   0  0  0  0  0  0  0  0  0  0  0  0
    8.2845    2.7205    1.3591 N   0  0  0  0  0  0  0  0  0  0  0  0
    7.1361    2.2463    0.6120 C   0  0  0  0  0  0  0  0  0  0  0  0
    6.2441    3.0600    0.2237 N   0  0  0  0  0  4  0  0  0  0  0  0
    7.0741    0.8797    0.3544 N   0  0  0  0  0  0  0  0  0  0  0  0
    6.0428    0.2247   -0.3517 C   0  0  0  0  0  0  0  0  0  0  0  0
    4.7193    0.2598    0.2619 C   0  0  0  0  0  0  0  0  0  0  0  0
    4.0528    1.5442    0.5197 C   0  0  0  0  0  0  0  0  0  0  0  0
    2.7225    1.3514    1.1479 C   0  0  0  0  0  0  0  0  0  0  0  0
    1.8713    0.5642    0.2213 C   0  0  0  0  0  0  0  0  0  0  0  0
    2.3021    0.1462   -0.9127 O   0  0  0  0  0  0  0  0  0  0  0  0
    0.5508    0.2656    0.5880 N   0  0  0  0  0  0  0  0  0  0  0  0
   -0.2751   -0.5585   -0.4457 C   0  0  1  0  0  0  0  0  0  0  0  0
    0.6414   -1.9091   -0.2192 C   0  0  0  0  0  0  0  0  0  0  0  0
    0.1518   -2.9648   -1.0580 C   0  0  0  0  0  0  0  0  0  0  0  0
   -0.6770   -3.9559   -0.4204 N   0  0  0  0  0  0  0  0  0  0  0  0
    0.3469   -3.1475   -2.2886 O   0  0  0  0  0  0  0  0  0  0  0  0
   -1.4360   -0.9867    0.5476 C   0  0  0  0  0  0  0  0  0  0  0  0
   -1.4906   -0.7215    1.7132 O   0  0  0  0  0  0  0  0  0  0  0  0
   -2.4901   -1.7509   -0.0299 N   0  0  0  0  0  0  0  0  0  0  0  0
   -3.6206   -2.2143    0.7506 C   0  0  0  0  0  0  0  0  0  0  0  0
   -4.3860   -1.1172    1.3934 C   0  0  0  0  0  0  0  0  0  0  0  0
   -4.8569   -0.2105    0.2878 C   0  0  0  0  0  0  0  0  0  0  0  0
   -6.0836   -0.4160   -0.2995 C   0  0  0  0  0  0  0  0  0  0  0  0
   -6.4903    0.4240   -1.3114 C   0  0  0  0  0  0  0  0  0  0  0  0
   -5.7295    1.4430   -1.7499 C   0  0  0  0  0  0  0  0  0  0  0  0
   -6.0460    2.3491   -2.7663 O   0  0  0  0  0  0  0  0  0  0  0  0
   -4.4809    1.6545   -1.1552 C   0  0  0  0  0  0  0  0  0  0  0  0
   -4.0778    0.8200   -0.1496 C   0  0  0  0  0  0  0  0  0  0  0  0
  2  1  1  6
  2  3  1  0
  3  4  1  0
  4  5  1  0
  5  6  2  0
  6  7  1  0
  7  8  2  0
  2  9  1  0
  9 10  1  0
 10 11  2  0
 11 12  1  0
 12 13  2  0
 13 14  1  0
 14 15  2  0
 15 16  1  0
 16 17  1  0
 17 18  2  0
 18 19  1  0
 19 20  2  0
 20 21  1  0
 20 22  1  0
 22 23  2  0
 23 24  1  0
 15 25  1  0
 25 26  2  0
 25 27  1  0
 27 28  1  0
 27 29  1  0
 29 30  2  0
 31 32  1  0
 32 33  2  0
 32 34  1  0
 34 35  1  0
 35 36  1  0
 36 37  1  0
 37 38  1  0
 38 39  1  0
 39 40  2  0
 39 41  1  0
 41 42  1  0
 42 43  1  1
 43 44  1  0
 44 45  1  0
 44 46  2  0
 42 47  1  0
 47 48  2  0
 47 49  1  0
 49 50  1  0
 50 51  1  0
 51 52  1  0
 52 53  2  0
 53 54  1  0
 54 55  2  0
 55 56  1  0
 55 57  1  0
 57 58  2  0
  8  4  1  0
 30 10  1  0
 58 52  1  0
 29 13  1  0
 23 17  1  0
M  CHG  1  33   1
M  END

