
     RDKit          3D

 51 54  0  0  0  0  0  0  0  0999 V2000
    5.1877   -0.3120    1.2269 C   0  0  0  0  0  0  0  0  0  0  0  0
    5.2347   -1.3990   -0.0039 C   0  0  2  0  0  0  0  0  0  0  0  0
    4.6373   -0.3503   -1.1091 C   0  0  0  0  0  0  0  0  0  0  0  0
    5.6726    0.6910   -1.0487 N   0  0  0  0  0  0  0  0  0  0  0  0
    5.6266    1.7277   -0.2245 N   0  0  0  0  0  0  0  0  0  0  0  0
    6.7376    2.4795   -0.4390 C   0  0  0  0  0  0  0  0  0  0  0  0
    7.4380    1.8620   -1.4076 N   0  0  0  0  0  0  0  0  0  0  0  0
    6.7729    0.7848   -1.7581 N   0  0  0  0  0  0  0  0  0  0  0  0
    3.8605   -2.0592    0.3173 N   0  0  0  0  0  0  0  0  0  0  0  0
    2.6981   -1.2899    0.3473 C   0  0  0  0  0  0  0  0  0  0  0  0
    2.6457    0.0344    0.1139 N   0  0  0  0  0  0  0  0  0  0  0  0
    1.4925    0.7262    0.1566 C   0  0  0  0  0  0  0  0  0  0  0  0
    0.2938    0.1107    0.4440 C   0  0  0  0  0  0  0  0  0  0  0  0
   -0.9021    0.7448    0.5029 C   0  0  0  0  0  0  0  0  0  0  0  0
   -2.0813   -0.0040    0.8116 C   0  0  0  0  0  0  0  0  0  0  0  0
   -3.2444    0.6456    0.8656 O   0  0  0  0  0  0  0  0  0  0  0  0
   -4.4465    0.7804    0.3083 C   0  0  0  0  0  0  0  0  0  0  0  0
   -4.6773    2.0816   -0.2673 C   0  0  0  0  0  0  0  0  0  0  0  0
   -5.8430    2.4026   -0.8777 C   0  0  0  0  0  0  0  0  0  0  0  0
   -6.8822    1.5073   -0.9876 C   0  0  0  0  0  0  0  0  0  0  0  0
   -8.0497    1.8135   -1.5963 F   0  0  0  0  0  0  0  0  0  0  0  0
   -6.7130    0.2764   -0.4628 C   0  0  0  0  0  0  0  0  0  0  0  0
   -5.5025   -0.0505    0.1691 C   0  0  0  0  0  0  0  0  0  0  0  0
   -5.4939   -1.2941    0.6586 F   0  0  0  0  0  0  0  0  0  0  0  0
   -1.9436   -1.3409    1.0363 C   0  0  0  0  0  0  0  0  0  0  0  0
   -2.9612   -2.0746    1.3240 O   0  0  0  0  0  0  0  0  0  0  0  0
   -0.7420   -1.9532    0.9718 N   0  0  0  0  0  0  0  0  0  0  0  0
   -0.7130   -3.3834    1.2284 C   0  0  0  0  0  0  0  0  0  0  0  0
    0.3536   -1.2478    0.6826 C   0  0  0  0  0  0  0  0  0  0  0  0
    1.5441   -1.9097    0.6289 N   0  0  0  0  0  0  0  0  0  0  0  0
    5.6157   -1.1563    0.4012 O   0  0  0  0  0  1  0  0  0  0  0  0
    4.8293   -1.0321   -0.7300 C   0  0  0  0  0  0  0  0  0  0  0  0
    5.2924   -0.8421   -1.8388 O   0  0  0  0  0  0  0  0  0  0  0  0
    3.3254   -1.1508   -0.5036 C   0  0  0  0  0  0  0  0  0  0  0  0
    2.8348    0.2176   -0.1111 C   0  0  0  0  0  0  0  0  0  0  0  0
    1.3549    0.1500    0.1126 C   0  0  0  0  0  0  0  0  0  0  0  0
    0.7271   -0.9240   -0.1857 O   0  0  0  0  0  0  0  0  0  0  0  0
    0.6122    1.2066    0.6369 N   0  0  0  0  0  0  0  0  0  0  0  0
   -0.8906    1.0789    0.8480 C   0  0  1  0  0  0  0  0  0  0  0  0
   -1.2752    0.5106   -0.6547 C   0  0  0  0  0  0  0  0  0  0  0  0
   -0.7552    1.7122   -1.4695 C   0  0  0  0  0  0  0  0  0  0  0  0
   -1.5314    2.9070   -0.9588 C   0  0  0  0  0  0  0  0  0  0  0  0
   -1.2162    4.1308   -1.5249 O   0  0  0  0  0  1  0  0  0  0  0  0
   -2.4086    2.8711   -0.0859 O   0  0  0  0  0  0  0  0  0  0  0  0
   -0.9624   -0.3414    1.5870 C   0  0  0  0  0  0  0  0  0  0  0  0
    0.0545   -0.7258    2.2013 O   0  0  0  0  0  0  0  0  0  0  0  0
   -2.1831   -1.0391    1.4752 N   0  0  0  0  0  0  0  0  0  0  0  0
   -3.3737   -0.5620    0.7636 C   0  0  0  0  0  0  0  0  0  0  0  0
   -3.9672   -1.8313    0.2065 C   0  0  0  0  0  0  0  0  0  0  0  0
   -3.6217   -2.8702    1.2253 C   0  0  0  0  0  0  0  0  0  0  0  0
   -2.4608   -2.3098    2.0300 C   0  0  0  0  0  0  0  0  0  0  0  0
  2  1  1  1
  2  3  1  0
  3  4  1  0
  4  5  1  0
  5  6  2  0
  6  7  1  0
  7  8  2  0
  2  9  1  0
  9 10  1  0
 10 11  2  0
 11 12  1  0
 12 13  2  0
 13 14  1  0
 14 15  2  0
 15 16  1  0
 16 17  1  0
 17 18  2  0
 18 19  1  0
 19 20  2  0
 20 21  1  0
 20 22  1  0
 22 23  2  0
 23 24  1  0
 15 25  1  0
 25 26  2  0
 25 27  1  0
 27 28  1  0
 27 29  1  0
 29 30  2  0
 31 32  1  0
 32 33  2  0
 32 34  1  0
 34 35  1  0
 35 36  1  0
 36 37  2  0
 36 38  1  0
 38 39  1  0
 39 40  1  6
 40 41  1  0
 41 42  1  0
 42 43  1  0
 42 44  2  0
 39 45  1  0
 45 46  2  0
 45 47  1  0
 47 48  1  0
 48 49  1  0
 49 50  1  0
 50 51  1  0
  8  4  1  0
 30 10  1  0
 51 47  1  0
 29 13  1  0
 23 17  1  0
M  RAD  2  31   2  43   2
M  END

