
     RDKit          3D

 48 51  0  0  0  0  0  0  0  0999 V2000
    5.8633   -0.0833    0.0506 C   0  0  0  0  0  0  0  0  0  0  0  0
    4.4926   -0.1186    0.6757 C   0  0  0  0  0  0  0  0  0  0  0  0
    4.5285    0.4573    2.0814 C   0  0  0  0  0  0  0  0  0  0  0  0
    3.9007   -1.5119    0.6275 C   0  0  0  0  0  0  0  0  0  0  0  0
    2.5470   -1.5735    1.2502 C   0  0  0  0  0  0  0  0  0  0  0  0
    1.5698   -0.6736    0.5615 C   0  0  0  0  0  0  0  0  0  0  0  0
    1.9187   -0.0712   -0.4879 O   0  0  0  0  0  0  0  0  0  0  0  0
    0.3281   -0.5469    1.1135 N   0  0  0  0  0  0  0  0  0  0  0  0
   -0.7930    0.3658    0.5087 C   0  0  1  0  0  0  0  0  0  0  0  0
    0.0121    0.7565   -0.8823 C   0  0  0  0  0  0  0  0  0  0  0  0
   -0.8306    1.5745   -1.5743 O   0  0  0  0  0  0  0  0  0  0  0  0
   -1.7081   -0.7489   -0.1851 C   0  0  0  0  0  0  0  0  0  0  0  0
   -1.4300   -1.8996   -0.2760 O   0  0  0  0  0  0  0  0  0  0  0  0
   -2.8959   -0.1933   -0.6717 N   0  0  0  0  0  0  0  0  0  0  0  0
   -4.0147   -0.8639   -1.3810 C   0  0  0  0  0  0  0  0  0  0  0  0
   -5.2630   -0.2880   -0.7279 C   0  0  0  0  0  0  0  0  0  0  0  0
   -4.8116    0.9713   -0.0650 C   0  0  0  0  0  0  0  0  0  0  0  0
   -3.4140    1.1887   -0.6178 C   0  0  0  0  0  0  0  0  0  0  0  0
    4.2080    0.5626   -1.7095 C   0  0  0  0  0  0  0  0  0  0  0  0
    4.9758    1.3525   -0.5080 C   0  0  2  0  0  0  0  0  0  0  0  0
    4.3480    0.4302    0.6743 C   0  0  0  0  0  0  0  0  0  0  0  0
    4.8221   -0.8961    0.3175 N   0  0  0  0  0  0  0  0  0  0  0  0
    5.9392   -1.5067    0.6789 N   0  0  0  0  0  0  0  0  0  0  0  0
    6.0292   -2.7226    0.1499 C   0  0  0  0  0  0  0  0  0  0  0  0
    4.9013   -2.8798   -0.5853 N   0  0  0  0  0  0  0  0  0  0  0  0
    4.1999   -1.7647   -0.4622 N   0  0  0  0  0  0  0  0  0  0  0  0
    3.9397    2.4904   -0.3640 N   0  0  0  0  0  0  0  0  0  0  0  0
    2.6063    2.2405   -0.0664 C   0  0  0  0  0  0  0  0  0  0  0  0
    1.8152    3.3257    0.0293 N   0  0  0  0  0  0  0  0  0  0  0  0
    0.5032    3.2456    0.3114 C   0  0  0  0  0  0  0  0  0  0  0  0
   -0.0295    1.9802    0.5069 C   0  0  0  0  0  0  0  0  0  0  0  0
   -1.3649    1.8397    0.7979 C   0  0  0  0  0  0  0  0  0  0  0  0
   -1.9054    0.5638    0.9958 C   0  0  0  0  0  0  0  0  0  0  0  0
   -3.2460    0.5233    1.2814 O   0  0  0  0  0  0  0  0  0  0  0  0
   -4.1341   -0.1542    0.4633 C   0  0  0  0  0  0  0  0  0  0  0  0
   -3.7196   -0.8184   -0.6727 C   0  0  0  0  0  0  0  0  0  0  0  0
   -4.6593   -1.4716   -1.4397 C   0  0  0  0  0  0  0  0  0  0  0  0
   -6.0003   -1.4878   -1.1165 C   0  0  0  0  0  0  0  0  0  0  0  0
   -6.8701   -2.1510   -1.9173 F   0  0  0  0  0  0  0  0  0  0  0  0
   -6.3887   -0.8197    0.0186 C   0  0  0  0  0  0  0  0  0  0  0  0
   -5.4711   -0.1567    0.8067 C   0  0  0  0  0  0  0  0  0  0  0  0
   -5.8642    0.5081    1.9381 F   0  0  0  0  0  0  0  0  0  0  0  0
   -1.0972   -0.5518    0.8986 C   0  0  0  0  0  0  0  0  0  0  0  0
   -1.6047   -1.6853    1.0802 O   0  0  0  0  0  0  0  0  0  0  0  0
    0.2024   -0.3635    0.6120 N   0  0  0  0  0  0  0  0  0  0  0  0
    1.0571   -1.5136    0.5073 C   0  0  0  0  0  0  0  0  0  0  0  0
    0.7519    0.8527    0.4161 C   0  0  0  0  0  0  0  0  0  0  0  0
    2.0559    1.0281    0.1294 N   0  0  0  0  0  0  0  0  0  0  0  0
  1  2  1  0
  2  3  1  0
  2  4  1  0
  4  5  1  0
  5  6  1  0
  6  7  2  0
  6  8  1  0
  8  9  1  0
  9 10  1  6
 10 11  1  0
  9 12  1  0
 12 13  2  0
 12 14  1  0
 14 15  1  0
 15 16  1  0
 16 17  1  0
 17 18  1  0
 20 19  1  6
 20 21  1  0
 21 22  1  0
 22 23  1  0
 23 24  2  0
 24 25  1  0
 25 26  2  0
 20 27  1  0
 27 28  1  0
 28 29  2  0
 29 30  1  0
 30 31  2  0
 31 32  1  0
 32 33  2  0
 33 34  1  0
 34 35  1  0
 35 36  2  0
 36 37  1  0
 37 38  2  0
 38 39  1  0
 38 40  1  0
 40 41  2  0
 41 42  1  0
 33 43  1  0
 43 44  2  0
 43 45  1  0
 45 46  1  0
 45 47  1  0
 47 48  2  0
 18 14  1  0
 26 22  1  0
 48 28  1  0
 47 31  1  0
 41 35  1  0
M  END

