
     RDKit          3D

 48 51  0  0  0  0  0  0  0  0999 V2000
    5.7382    0.6254    0.5427 C   0  0  0  0  0  0  0  0  0  0  0  0
    5.5034   -0.3780   -0.5745 C   0  0  0  0  0  0  0  0  0  0  0  0
    4.1416   -0.2417   -1.0623 N   0  0  0  0  0  0  0  0  0  0  0  0
    3.0357   -0.4544   -0.1927 C   0  0  0  0  0  0  0  0  0  0  0  0
    3.1435   -0.7521    0.9760 O   0  0  0  0  0  0  0  0  0  0  0  0
    1.6002   -0.2673   -0.8911 C   0  0  2  0  0  0  0  0  0  0  0  0
    1.4973    1.3616   -0.4504 C   0  0  0  0  0  0  0  0  0  0  0  0
    2.2289    1.9778   -1.4427 O   0  0  0  0  0  0  0  0  0  0  0  0
    0.7303   -0.7121    0.3598 N   0  0  0  0  0  0  0  0  0  0  0  0
   -0.6510   -0.8457    0.1266 C   0  0  0  0  0  0  0  0  0  0  0  0
   -1.0930   -0.6034   -1.0290 O   0  0  0  0  0  0  0  0  0  0  0  0
   -1.5499   -1.2655    1.2132 C   0  0  0  0  0  0  0  0  0  0  0  0
   -2.9586   -1.4697    0.8110 C   0  0  0  0  0  0  0  0  0  0  0  0
   -3.6467   -0.3030    0.2695 C   0  0  0  0  0  0  0  0  0  0  0  0
   -3.2595    1.0085    0.0839 C   0  0  0  0  0  0  0  0  0  0  0  0
   -4.2349    1.7278   -0.4452 N   0  0  0  0  0  0  0  0  0  0  0  0
   -5.2942    0.9020   -0.6258 C   0  0  0  0  0  0  0  0  0  0  0  0
   -4.9315   -0.3104   -0.1948 N   0  0  0  0  0  0  0  0  0  0  0  0
   -4.4066   -1.3041   -1.4966 C   0  0  0  0  0  0  0  0  0  0  0  0
   -4.8098   -2.2231   -0.1830 C   0  0  2  0  0  0  0  0  0  0  0  0
   -4.7054   -0.9648    0.8707 C   0  0  0  0  0  0  0  0  0  0  0  0
   -5.6893   -0.0219    0.3717 N   0  0  0  0  0  0  0  0  0  0  0  0
   -5.4452    0.9169   -0.5018 N   0  0  0  0  0  0  0  0  0  0  0  0
   -6.5572    1.6393   -0.7738 C   0  0  0  0  0  0  0  0  0  0  0  0
   -7.5223    1.0820   -0.0028 N   0  0  0  0  0  0  0  0  0  0  0  0
   -6.9686    0.0860    0.6737 N   0  0  0  0  0  0  0  0  0  0  0  0
   -3.3427   -2.7224    0.0525 N   0  0  0  0  0  0  0  0  0  0  0  0
   -2.3579   -1.7232    0.1971 C   0  0  0  0  0  0  0  0  0  0  0  0
   -2.6028   -0.4055    0.1438 N   0  0  0  0  0  0  0  0  0  0  0  0
   -1.6169    0.4990    0.2897 C   0  0  0  0  0  0  0  0  0  0  0  0
   -0.3245    0.0747    0.4987 C   0  0  0  0  0  0  0  0  0  0  0  0
    0.7368    0.9486    0.6568 C   0  0  0  0  0  0  0  0  0  0  0  0
    2.0383    0.4958    0.8676 C   0  0  0  0  0  0  0  0  0  0  0  0
    3.0590    1.4229    1.0187 O   0  0  0  0  0  0  0  0  0  0  0  0
    4.0970    1.3727    0.0996 C   0  0  0  0  0  0  0  0  0  0  0  0
    4.1357    0.4520   -0.9272 C   0  0  0  0  0  0  0  0  0  0  0  0
    5.1860    0.4395   -1.8156 C   0  0  0  0  0  0  0  0  0  0  0  0
    6.2426    1.3241   -1.7402 C   0  0  0  0  0  0  0  0  0  0  0  0
    7.2696    1.2945   -2.6277 F   0  0  0  0  0  0  0  0  0  0  0  0
    6.2038    2.2464   -0.7116 C   0  0  0  0  0  0  0  0  0  0  0  0
    5.1520    2.2689    0.1889 C   0  0  0  0  0  0  0  0  0  0  0  0
    5.0908    3.1658    1.2088 F   0  0  0  0  0  0  0  0  0  0  0  0
    2.2358   -0.8576    0.9138 C   0  0  0  0  0  0  0  0  0  0  0  0
    3.4168   -1.2917    1.1053 O   0  0  0  0  0  0  0  0  0  0  0  0
    1.1917   -1.6906    0.7579 N   0  0  0  0  0  0  0  0  0  0  0  0
    1.4609   -3.1139    0.8162 C   0  0  0  0  0  0  0  0  0  0  0  0
   -0.0672   -1.2790    0.5543 C   0  0  0  0  0  0  0  0  0  0  0  0
   -1.1007   -2.1313    0.4004 N   0  0  0  0  0  0  0  0  0  0  0  0
  1  2  1  0
  2  3  1  0
  3  4  1  0
  4  5  2  0
  4  6  1  0
  6  7  1  1
  7  8  1  0
  6  9  1  0
  9 10  1  0
 10 11  2  0
 10 12  1  0
 12 13  1  0
 13 14  1  0
 14 15  2  0
 15 16  1  0
 16 17  1  0
 17 18  2  0
 20 19  1  6
 20 21  1  0
 21 22  1  0
 22 23  1  0
 23 24  2  0
 24 25  1  0
 25 26  2  0
 20 27  1  0
 27 28  1  0
 28 29  2  0
 29 30  1  0
 30 31  2  0
 31 32  1  0
 32 33  2  0
 33 34  1  0
 34 35  1  0
 35 36  2  0
 36 37  1  0
 37 38  2  0
 38 39  1  0
 38 40  1  0
 40 41  2  0
 41 42  1  0
 33 43  1  0
 43 44  2  0
 43 45  1  0
 45 46  1  0
 45 47  1  0
 47 48  2  0
 18 14  1  0
 26 22  1  0
 48 28  1  0
 47 31  1  0
 41 35  1  0
M  END

