
     RDKit          3D

 54 57  0  0  0  0  0  0  0  0999 V2000
   -5.3237    0.9405   -1.4317 C   0  0  0  0  0  0  0  0  0  0  0  0
   -5.2869    0.1435   -0.1456 C   0  0  0  0  0  0  0  0  0  0  0  0
   -5.8138   -1.2534   -0.4100 C   0  0  0  0  0  0  0  0  0  0  0  0
   -3.8921    0.0942    0.4376 C   0  0  0  0  0  0  0  0  0  0  0  0
   -2.9186   -0.5640   -0.5437 C   0  0  0  0  0  0  0  0  0  0  0  0
   -1.6366   -0.5420    0.1457 N   0  0  0  0  0  0  0  0  0  0  0  0
   -0.4653   -1.0731   -0.4314 C   0  0  0  0  0  0  0  0  0  0  0  0
   -0.4838   -1.5653   -1.5310 O   0  0  0  0  0  0  0  0  0  0  0  0
    0.8299   -0.9722    0.4744 C   0  0  2  0  0  0  0  0  0  0  0  0
    1.3961    0.4336   -0.1464 C   0  0  0  0  0  0  0  0  0  0  0  0
    0.3962    1.4639    0.0811 C   0  0  0  0  0  0  0  0  0  0  0  0
   -0.5293    1.7565   -0.8723 C   0  0  0  0  0  0  0  0  0  0  0  0
   -1.4867    2.7111   -0.7086 C   0  0  0  0  0  0  0  0  0  0  0  0
   -1.5611    3.4317    0.4433 C   0  0  0  0  0  0  0  0  0  0  0  0
   -2.5234    4.4102    0.6413 O   0  0  0  0  0  0  0  0  0  0  0  0
   -0.6294    3.1573    1.4371 C   0  0  0  0  0  0  0  0  0  0  0  0
    0.3196    2.2044    1.2637 C   0  0  0  0  0  0  0  0  0  0  0  0
    1.7792   -1.8376   -0.4794 N   0  0  0  0  0  0  0  0  0  0  0  0
    3.0985   -1.8905    0.0450 C   0  0  0  0  0  0  0  0  0  0  0  0
    3.4321   -1.3189    1.1119 O   0  0  0  0  0  0  0  0  0  0  0  0
    4.1781   -2.6452   -0.6615 C   0  0  0  0  0  0  0  0  0  0  0  0
    5.4899   -2.5678    0.0139 C   0  0  0  0  0  0  0  0  0  0  0  0
    6.0306   -1.1581    0.1505 C   0  0  0  0  0  0  0  0  0  0  0  0
    5.6005   -3.3588    1.2955 C   0  0  0  0  0  0  0  0  0  0  0  0
   -5.9110   -0.0200    1.8193 C   0  0  0  0  0  0  0  0  0  0  0  0
   -4.7246    0.7337    0.9379 C   0  0  2  0  0  0  0  0  0  0  0  0
   -4.7571   -0.4248   -0.2501 C   0  0  0  0  0  0  0  0  0  0  0  0
   -6.1134   -0.3684   -0.7399 N   0  0  0  0  0  0  0  0  0  0  0  0
   -6.5398    0.3896   -1.7166 N   0  0  0  0  0  0  0  0  0  0  0  0
   -7.8592    0.1654   -1.8830 C   0  0  0  0  0  0  0  0  0  0  0  0
   -8.2299   -0.7582   -0.9733 N   0  0  0  0  0  0  0  0  0  0  0  0
   -7.1231   -1.0687   -0.2797 N   0  0  0  0  0  0  0  0  0  0  0  0
   -3.5564    0.0114    1.7255 N   0  0  0  0  0  0  0  0  0  0  0  0
   -2.2786    0.4307    1.2200 C   0  0  0  0  0  0  0  0  0  0  0  0
   -2.1122    1.3045    0.2283 N   0  0  0  0  0  0  0  0  0  0  0  0
   -0.9444    1.7226   -0.2731 C   0  0  0  0  0  0  0  0  0  0  0  0
    0.2068    1.1784    0.3135 C   0  0  0  0  0  0  0  0  0  0  0  0
    1.4283    1.5517   -0.1385 C   0  0  0  0  0  0  0  0  0  0  0  0
    2.5692    1.0283    0.4249 C   0  0  0  0  0  0  0  0  0  0  0  0
    3.7779    1.4335   -0.0630 O   0  0  0  0  0  0  0  0  0  0  0  0
    4.7398    0.6320   -0.6243 C   0  0  0  0  0  0  0  0  0  0  0  0
    6.0093    0.5483   -0.0721 C   0  0  0  0  0  0  0  0  0  0  0  0
    6.9778   -0.2576   -0.6359 C   0  0  0  0  0  0  0  0  0  0  0  0
    6.7264   -1.0099   -1.7658 C   0  0  0  0  0  0  0  0  0  0  0  0
    7.6709   -1.8083   -2.3322 F   0  0  0  0  0  0  0  0  0  0  0  0
    5.4593   -0.9195   -2.3078 C   0  0  0  0  0  0  0  0  0  0  0  0
    4.4808   -0.1167   -1.7534 C   0  0  0  0  0  0  0  0  0  0  0  0
    3.2297   -0.0245   -2.2847 F   0  0  0  0  0  0  0  0  0  0  0  0
    2.3905    0.1291    1.4457 C   0  0  0  0  0  0  0  0  0  0  0  0
    3.3915   -0.3750    1.9907 O   0  0  0  0  0  0  0  0  0  0  0  0
    1.1793   -0.2379    1.8904 N   0  0  0  0  0  0  0  0  0  0  0  0
    1.0269   -1.2038    2.9858 C   0  0  0  0  0  0  0  0  0  0  0  0
    0.0530    0.2750    1.3385 C   0  0  0  0  0  0  0  0  0  0  0  0
   -1.1677   -0.0824    1.7726 N   0  0  0  0  0  0  0  0  0  0  0  0
  1  2  1  0
  2  3  1  0
  2  4  1  0
  4  5  1  0
  5  6  1  0
  6  7  1  0
  7  8  2  0
  7  9  1  0
  9 10  1  6
 10 11  1  0
 11 12  2  0
 12 13  1  0
 13 14  2  0
 14 15  1  0
 14 16  1  0
 16 17  2  0
  9 18  1  0
 18 19  1  0
 19 20  2  0
 19 21  1  0
 21 22  1  0
 22 23  1  0
 22 24  1  0
 26 25  1  1
 26 27  1  0
 27 28  1  0
 28 29  1  0
 29 30  2  0
 30 31  1  0
 31 32  2  0
 26 33  1  0
 33 34  1  0
 34 35  2  0
 35 36  1  0
 36 37  2  0
 37 38  1  0
 38 39  2  0
 39 40  1  0
 40 41  1  0
 41 42  2  0
 42 43  1  0
 43 44  2  0
 44 45  1  0
 44 46  1  0
 46 47  2  0
 47 48  1  0
 39 49  1  0
 49 50  2  0
 49 51  1  0
 51 52  1  0
 51 53  1  0
 53 54  2  0
 17 11  1  0
 32 28  1  0
 54 34  1  0
 53 37  1  0
 47 41  1  0
M  END

