
     RDKit          3D

 52 55  0  0  0  0  0  0  0  0999 V2000
    4.9076    1.9956    1.7950 C   0  0  0  0  0  0  0  0  0  0  0  0
    4.8074    2.5600    0.4240 C   0  0  0  0  0  0  0  0  0  0  0  0
    5.3398    3.9304    0.2482 C   0  0  0  0  0  0  0  0  0  0  0  0
    3.4702    2.3099   -0.1950 C   0  0  0  0  0  0  0  0  0  0  0  0
    3.1070    0.8801   -0.3384 C   0  0  0  0  0  0  0  0  0  0  0  0
    1.7430    0.7898   -0.9721 C   0  0  0  0  0  0  0  0  0  0  0  0
    1.1587    1.8530   -1.2657 O   0  0  0  0  0  0  0  0  0  0  0  0
    1.1106   -0.4484   -1.2408 N   0  0  0  0  0  0  0  0  0  0  0  0
   -0.2920   -0.2470   -1.8966 C   0  0  1  0  0  0  0  0  0  0  0  0
   -0.8319   -1.7539   -1.8271 C   0  0  0  0  0  0  0  0  0  0  0  0
   -0.8846   -2.2737   -0.4861 C   0  0  0  0  0  0  0  0  0  0  0  0
   -0.5958   -1.9043    0.7765 C   0  0  0  0  0  0  0  0  0  0  0  0
   -0.8838   -2.8825    1.6256 N   0  0  0  0  0  0  0  0  0  0  0  0
   -1.3627   -3.8981    0.9193 C   0  0  0  0  0  0  0  0  0  0  0  0
   -1.3700   -3.5492   -0.3544 N   0  0  0  0  0  0  0  0  0  0  0  0
   -1.0794    0.3910   -0.6926 C   0  0  0  0  0  0  0  0  0  0  0  0
   -0.5580    0.6819    0.3676 O   0  0  0  0  0  0  0  0  0  0  0  0
   -2.4601    0.6416   -0.8417 N   0  0  0  0  0  0  0  0  0  0  0  0
   -3.3511    1.2074    0.1124 C   0  0  0  0  0  0  0  0  0  0  0  0
   -3.2989    0.1604    1.4247 C   0  0  1  0  0  0  0  0  0  0  0  0
   -4.8723    0.5682    1.8741 C   0  0  0  0  0  0  0  0  0  0  0  0
   -3.8037   -1.0120    0.5431 O   0  0  0  0  0  0  0  0  0  0  0  0
    4.0058    0.1780    3.4145 C   0  0  0  0  0  0  0  0  0  0  0  0
    4.9916   -0.3529    2.1914 C   0  0  2  0  0  0  0  0  0  0  0  0
    4.6866    0.9553    1.2282 C   0  0  0  0  0  0  0  0  0  0  0  0
    5.5245    0.6047    0.0706 N   0  0  0  0  0  0  0  0  0  0  0  0
    5.1540   -0.0949   -0.9845 N   0  0  0  0  0  0  0  0  0  0  0  0
    6.2109   -0.1829   -1.7950 C   0  0  0  0  0  0  0  0  0  0  0  0
    7.2139    0.4681   -1.2176 N   0  0  0  0  0  0  0  0  0  0  0  0
    6.7880    0.9474   -0.0771 N   0  0  0  0  0  0  0  0  0  0  0  0
    3.8952   -1.2748    1.5434 N   0  0  0  0  0  0  0  0  0  0  0  0
    2.6810   -0.6957    1.1353 C   0  0  0  0  0  0  0  0  0  0  0  0
    2.4057    0.6094    1.2701 N   0  0  0  0  0  0  0  0  0  0  0  0
    1.2350    1.1056    0.8646 C   0  0  0  0  0  0  0  0  0  0  0  0
    0.2810    0.2530    0.2907 C   0  0  0  0  0  0  0  0  0  0  0  0
   -0.9125    0.7422   -0.1253 C   0  0  0  0  0  0  0  0  0  0  0  0
   -1.8964   -0.1218   -0.7139 C   0  0  0  0  0  0  0  0  0  0  0  0
   -3.0394    0.4550   -1.0941 O   0  0  0  0  0  0  0  0  0  0  0  0
   -4.3324    0.4363   -0.8054 C   0  0  0  0  0  0  0  0  0  0  0  0
   -4.8448    1.6631   -0.2533 C   0  0  0  0  0  0  0  0  0  0  0  0
   -6.1409    1.7964    0.0876 C   0  0  0  0  0  0  0  0  0  0  0  0
   -7.0432    0.7796   -0.0693 C   0  0  0  0  0  0  0  0  0  0  0  0
   -8.3261    0.9978    0.2996 F   0  0  0  0  0  0  0  0  0  0  0  0
   -6.6176   -0.3990   -0.5853 C   0  0  0  0  0  0  0  0  0  0  0  0
   -5.2668   -0.5432   -0.9432 C   0  0  0  0  0  0  0  0  0  0  0  0
   -4.9250   -1.7237   -1.4818 F   0  0  0  0  0  0  0  0  0  0  0  0
   -1.5228   -1.4330   -0.8092 C   0  0  0  0  0  0  0  0  0  0  0  0
   -2.2724   -2.3189   -1.3069 O   0  0  0  0  0  0  0  0  0  0  0  0
   -0.3124   -1.8891   -0.3788 N   0  0  0  0  0  0  0  0  0  0  0  0
    0.0114   -3.3009   -0.5139 C   0  0  0  0  0  0  0  0  0  0  0  0
    0.5837   -1.0799    0.1622 C   0  0  0  0  0  0  0  0  0  0  0  0
    1.7844   -1.4961    0.5961 N   0  0  0  0  0  0  0  0  0  0  0  0
  1  2  1  0
  2  3  1  0
  2  4  1  0
  4  5  1  0
  5  6  1  0
  6  7  2  0
  6  8  1  0
  8  9  1  0
  9 10  1  1
 10 11  1  0
 11 12  2  0
 12 13  1  0
 13 14  1  0
 14 15  2  0
  9 16  1  0
 16 17  2  0
 16 18  1  0
 18 19  1  0
 19 20  1  0
 20 21  1  1
 20 22  1  0
 24 23  1  1
 24 25  1  0
 25 26  1  0
 26 27  1  0
 27 28  2  0
 28 29  1  0
 29 30  2  0
 24 31  1  0
 31 32  1  0
 32 33  2  0
 33 34  1  0
 34 35  2  0
 35 36  1  0
 36 37  2  0
 37 38  1  0
 38 39  1  0
 39 40  2  0
 40 41  1  0
 41 42  2  0
 42 43  1  0
 42 44  1  0
 44 45  2  0
 45 46  1  0
 37 47  1  0
 47 48  2  0
 47 49  1  0
 49 50  1  0
 49 51  1  0
 51 52  2  0
 15 11  1  0
 30 26  1  0
 52 32  1  0
 51 35  1  0
 45 39  1  0
M  END

