
     RDKit          3D

 52 54  0  0  0  0  0  0  0  0999 V2000
   -0.9464    4.9089   -2.7858 C   0  0  0  0  0  0  0  0  0  0  0  0
   -0.5882    3.4467   -2.5242 C   0  0  0  0  0  0  0  0  0  0  0  0
    0.7626    3.4809   -1.8285 C   0  0  0  0  0  0  0  0  0  0  0  0
   -1.5988    2.9700   -1.4790 C   0  0  0  0  0  0  0  0  0  0  0  0
   -1.3687    1.5542   -1.1301 C   0  0  0  0  0  0  0  0  0  0  0  0
   -0.4575    0.9400   -1.7082 O   0  0  0  0  0  0  0  0  0  0  0  0
   -2.1625    0.9484   -0.1782 N   0  0  0  0  0  0  0  0  0  0  0  0
   -1.9277   -0.5504    0.2009 C   0  0  1  0  0  0  0  0  0  0  0  0
   -1.5575   -1.0766   -1.2990 C   0  0  0  0  0  0  0  0  0  0  0  0
   -1.3068   -2.5607   -1.0887 C   0  0  0  0  0  0  0  0  0  0  0  0
   -2.5241   -3.2684   -0.5518 C   0  0  0  0  0  0  0  0  0  0  0  0
   -2.9200   -2.6717    0.7656 C   0  0  0  0  0  0  0  0  0  0  0  0
   -4.0895   -3.3087    1.3398 N   0  0  0  0  0  4  0  0  0  0  0  0
   -0.4342   -0.4676    0.7278 C   0  0  0  0  0  0  0  0  0  0  0  0
    0.2154    0.5356    0.7841 O   0  0  0  0  0  0  0  0  0  0  0  0
    0.1756   -1.6608    1.1626 N   0  0  0  0  0  0  0  0  0  0  0  0
    1.5274   -1.7560    1.6701 C   0  0  0  0  0  0  0  0  0  0  0  0
    2.5707   -1.3063    0.6553 C   0  0  0  0  0  0  0  0  0  0  0  0
    3.9133   -1.4652    1.3392 C   0  0  0  0  0  0  0  0  0  0  0  0
    4.0045   -0.6189    2.5933 C   0  0  0  0  0  0  0  0  0  0  0  0
    3.8115    0.8345    2.1406 C   0  0  0  0  0  0  0  0  0  0  0  0
    4.9010    1.0919    1.1941 N   0  0  0  0  0  4  0  0  0  0  0  0
   -4.6705   -2.0293    2.4353 C   0  0  0  0  0  0  0  0  0  0  0  0
   -5.2231   -1.5923    0.9353 C   0  0  2  0  0  0  0  0  0  0  0  0
   -4.1552   -2.5575    0.1346 C   0  0  0  0  0  0  0  0  0  0  0  0
   -4.4708   -2.3255   -1.2604 N   0  0  0  0  0  0  0  0  0  0  0  0
   -3.8991   -1.3816   -1.9811 N   0  0  0  0  0  0  0  0  0  0  0  0
   -4.3900   -1.4136   -3.2156 C   0  0  0  0  0  0  0  0  0  0  0  0
   -5.2949   -2.4080   -3.2646 N   0  0  0  0  0  0  0  0  0  0  0  0
   -5.3141   -2.9376   -2.0549 N   0  0  0  0  0  0  0  0  0  0  0  0
   -4.3637   -0.2933    0.7901 N   0  0  0  0  0  0  0  0  0  0  0  0
   -2.9909   -0.3340    0.9155 C   0  0  0  0  0  0  0  0  0  0  0  0
   -2.4200   -1.5437    1.1746 N   0  0  0  0  0  0  0  0  0  0  0  0
   -1.1076   -1.7350    1.3208 C   0  0  0  0  0  0  0  0  0  0  0  0
   -0.2559   -0.6580    1.2070 C   0  0  0  0  0  0  0  0  0  0  0  0
    1.1124   -0.7540    1.3413 C   0  0  0  0  0  0  0  0  0  0  0  0
    1.9260    0.3604    1.2177 C   0  0  0  0  0  0  0  0  0  0  0  0
    3.2968    0.3083    1.3446 O   0  0  0  0  0  0  0  0  0  0  0  0
    4.1258    0.6993    0.2782 C   0  0  0  0  0  0  0  0  0  0  0  0
    3.5940    1.1431   -0.9170 C   0  0  0  0  0  0  0  0  0  0  0  0
    4.4267    1.5216   -1.9494 C   0  0  0  0  0  0  0  0  0  0  0  0
    5.8019    1.4774   -1.8439 C   0  0  0  0  0  0  0  0  0  0  0  0
    6.6206    1.8499   -2.8603 F   0  0  0  0  0  0  0  0  0  0  0  0
    6.3108    1.0282   -0.6342 C   0  0  0  0  0  0  0  0  0  0  0  0
    5.4897    0.6491    0.3999 C   0  0  0  0  0  0  0  0  0  0  0  0
    6.0520    0.2199    1.5550 F   0  0  0  0  0  0  0  0  0  0  0  0
    1.3261    1.5626    0.9574 C   0  0  0  0  0  0  0  0  0  0  0  0
    2.0235    2.6231    0.8331 O   0  0  0  0  0  0  0  0  0  0  0  0
    0.0029    1.6431    0.8296 N   0  0  0  0  0  0  0  0  0  0  0  0
   -0.5896    2.9296    0.5552 C   0  0  0  0  0  0  0  0  0  0  0  0
   -0.8144    0.5739    0.9451 C   0  0  0  0  0  0  0  0  0  0  0  0
   -2.1491    0.6848    0.8110 N   0  0  0  0  0  0  0  0  0  0  0  0
  1  2  1  0
  2  3  1  0
  2  4  1  0
  4  5  1  0
  5  6  2  0
  5  7  1  0
  7  8  1  0
  8  9  1  6
  9 10  1  0
 10 11  1  0
 11 12  1  0
 12 13  1  0
  8 14  1  0
 14 15  2  0
 14 16  1  0
 16 17  1  0
 17 18  1  0
 18 19  1  0
 19 20  1  0
 20 21  1  0
 21 22  1  0
 24 23  1  1
 24 25  1  0
 25 26  1  0
 26 27  1  0
 27 28  2  0
 28 29  1  0
 29 30  2  0
 24 31  1  0
 31 32  1  0
 32 33  2  0
 33 34  1  0
 34 35  2  0
 35 36  1  0
 36 37  2  0
 37 38  1  0
 38 39  1  0
 39 40  2  0
 40 41  1  0
 41 42  2  0
 42 43  1  0
 42 44  1  0
 44 45  2  0
 45 46  1  0
 37 47  1  0
 47 48  2  0
 47 49  1  0
 49 50  1  0
 49 51  1  0
 51 52  2  0
 30 26  1  0
 52 32  1  0
 51 35  1  0
 45 39  1  0
M  CHG  2  13   1  22   1
M  END

