
     RDKit          3D

 25 24  0  0  0  0  0  0  0  0999 V2000
    7.8753    2.9214    0.6969 N   0  0  0  0  0  0  0  0  0  0  0  0
    6.5223    2.5293    0.6167 C   0  0  0  0  0  0  0  0  0  0  0  0
    5.6125    3.4503    0.6680 N   0  0  0  0  0  4  0  0  0  0  0  0
    6.1349    1.1895    0.4853 N   0  0  0  0  0  0  0  0  0  0  0  0
    4.7520    0.7672    0.4017 C   0  0  0  0  0  0  0  0  0  0  0  0
    4.6590   -0.7509    0.2648 C   0  0  0  0  0  0  0  0  0  0  0  0
    3.1801   -1.1337    0.1815 C   0  0  0  0  0  0  0  0  0  0  0  0
    2.5596   -0.6353    1.4866 C   0  0  0  0  0  0  0  0  0  0  0  0
    1.1466   -0.9362    1.5381 N   0  0  0  0  0  0  0  0  0  0  0  0
    0.2800   -0.4155    0.5547 C   0  0  0  0  0  0  0  0  0  0  0  0
    0.6674    0.2835   -0.3463 O   0  0  0  0  0  0  0  0  0  0  0  0
   -1.2607   -0.8271    0.7311 C   0  0  2  0  0  0  0  0  0  0  0  0
   -1.1015   -2.2741   -0.1197 C   0  0  0  0  0  0  0  0  0  0  0  0
   -2.5589   -2.7399    0.0040 C   0  0  0  0  0  0  0  0  0  0  0  0
   -2.7285   -4.0566   -0.6879 C   0  0  0  0  0  0  0  0  0  0  0  0
   -1.8631   -5.1464   -0.1244 C   0  0  0  0  0  0  0  0  0  0  0  0
   -2.0862   -6.3786   -0.8437 N   0  0  0  0  0  4  0  0  0  0  0  0
   -1.7962   -0.0435   -0.5391 N   0  0  0  0  0  0  0  0  0  0  0  0
   -2.6767    1.0379   -0.2523 C   0  0  0  0  0  0  0  0  0  0  0  0
   -2.9406    1.2652    0.9437 O   0  0  0  0  0  0  0  0  0  0  0  0
   -3.2362    1.8396   -1.3778 C   0  0  0  0  0  0  0  0  0  0  0  0
   -4.1356    2.9311   -0.9421 C   0  0  0  0  0  0  0  0  0  0  0  0
   -5.3157    2.4773   -0.1865 C   0  0  0  0  0  0  0  0  0  0  0  0
   -6.2376    3.4006    0.2811 O   0  0  0  0  0  1  0  0  0  0  0  0
   -5.4519    1.2449    0.0141 O   0  0  0  0  0  0  0  0  0  0  0  0
  1  2  1  0
  2  3  2  0
  2  4  1  0
  4  5  1  0
  5  6  1  0
  6  7  1  0
  7  8  1  0
  8  9  1  0
  9 10  1  0
 10 11  2  0
 10 12  1  0
 12 13  1  6
 13 14  1  0
 14 15  1  0
 15 16  1  0
 16 17  1  0
 12 18  1  0
 18 19  1  0
 19 20  2  0
 19 21  1  0
 21 22  1  0
 22 23  1  0
 23 24  1  0
 23 25  2  0
M  CHG  2   3   1  17   1
M  RAD  1  24   2
M  END

