
     RDKit          3D

 64 69  0  0  0  0  0  0  0  0999 V2000
    3.6127    2.5439   -1.2897 C   0  0  0  0  0  0  0  0  0  0  0  0
    4.1356    2.6700    0.2575 C   0  0  2  0  0  0  0  0  0  0  0  0
    5.6989    2.3244   -0.0428 C   0  0  0  0  0  0  0  0  0  0  0  0
    5.8382    1.0481   -0.6162 N   0  0  0  0  0  0  0  0  0  0  0  0
    5.8121    0.8436   -1.9369 N   0  0  0  0  0  0  0  0  0  0  0  0
    5.9679   -0.4671   -2.2034 C   0  0  0  0  0  0  0  0  0  0  0  0
    6.0878   -1.0351   -0.9882 N   0  0  0  0  0  0  0  0  0  0  0  0
    6.0085   -0.1158   -0.0407 N   0  0  0  0  0  0  0  0  0  0  0  0
    3.7472    1.2015    0.6272 N   0  0  0  0  0  0  0  0  0  0  0  0
    2.3559    0.9517    0.4642 C   0  0  0  0  0  0  0  0  0  0  0  0
    1.4570    1.8433    0.0464 N   0  0  0  0  0  0  0  0  0  0  0  0
    0.1462    1.5723   -0.0965 C   0  0  0  0  0  0  0  0  0  0  0  0
   -0.3155    0.3153    0.1979 C   0  0  0  0  0  0  0  0  0  0  0  0
   -1.6454   -0.0581    0.0820 C   0  0  0  0  0  0  0  0  0  0  0  0
   -2.0659   -1.3355    0.3896 C   0  0  0  0  0  0  0  0  0  0  0  0
   -3.3564   -1.7789    0.3012 O   0  0  0  0  0  0  0  0  0  0  0  0
   -4.4273   -0.9979   -0.1131 C   0  0  0  0  0  0  0  0  0  0  0  0
   -5.1848   -1.3315   -1.2175 C   0  0  0  0  0  0  0  0  0  0  0  0
   -6.2508   -0.5392   -1.6164 C   0  0  0  0  0  0  0  0  0  0  0  0
   -6.6058    0.6056   -0.9424 C   0  0  0  0  0  0  0  0  0  0  0  0
   -7.6418    1.3934   -1.3138 F   0  0  0  0  0  0  0  0  0  0  0  0
   -5.8531    0.9458    0.1630 C   0  0  0  0  0  0  0  0  0  0  0  0
   -4.7884    0.1518    0.5589 C   0  0  0  0  0  0  0  0  0  0  0  0
   -4.0479    0.4856    1.6456 F   0  0  0  0  0  0  0  0  0  0  0  0
   -1.1027   -2.2262    0.8181 C   0  0  0  0  0  0  0  0  0  0  0  0
   -1.4226   -3.4157    1.1166 O   0  0  0  0  0  0  0  0  0  0  0  0
    0.1699   -1.8743    0.9305 N   0  0  0  0  0  0  0  0  0  0  0  0
    1.1742   -2.8183    1.3819 C   0  0  0  0  0  0  0  0  0  0  0  0
    0.5996   -0.6199    0.6314 C   0  0  0  0  0  0  0  0  0  0  0  0
    1.8967   -0.2831    0.7525 N   0  0  0  0  0  0  0  0  0  0  0  0
   -8.6064    3.2878    1.2388 N   0  0  0  0  0  0  0  0  0  0  0  0
   -7.8851    3.3147    0.0026 C   0  0  0  0  0  0  0  0  0  0  0  0
   -8.3008    4.0368   -0.9800 N   0  0  0  0  0  4  0  0  0  0  0  0
   -6.7008    2.5653   -0.2034 N   0  0  0  0  0  0  0  0  0  0  0  0
   -6.0374    2.6534   -1.4856 C   0  0  0  0  0  0  0  0  0  0  0  0
   -4.8074    1.8055   -1.5403 C   0  0  0  0  0  0  0  0  0  0  0  0
   -5.1146    0.3204   -1.3054 C   0  0  0  0  0  0  0  0  0  0  0  0
   -3.7947   -0.4299   -1.3837 C   0  0  0  0  0  0  0  0  0  0  0  0
   -2.8762    0.1163   -0.3068 C   0  0  0  0  0  0  0  0  0  0  0  0
   -3.2771    1.0304    0.4488 O   0  0  0  0  0  0  0  0  0  0  0  0
   -1.5646   -0.3729   -0.1188 N   0  0  0  0  0  0  0  0  0  0  0  0
   -0.8339    0.3563    1.0514 C   0  0  1  0  0  0  0  0  0  0  0  0
   -0.5561   -0.9789    1.9432 C   0  0  0  0  0  0  0  0  0  0  0  0
    0.2457   -1.9256    1.1995 C   0  0  0  0  0  0  0  0  0  0  0  0
    1.6035   -2.1192    1.4357 C   0  0  0  0  0  0  0  0  0  0  0  0
    2.0793   -3.0596    0.6005 N   0  0  0  0  0  0  0  0  0  0  0  0
    1.0865   -3.5108   -0.1957 C   0  0  0  0  0  0  0  0  0  0  0  0
    1.0977   -4.4669   -1.1920 C   0  0  0  0  0  0  0  0  0  0  0  0
   -0.1028   -4.7066   -1.8265 C   0  0  0  0  0  0  0  0  0  0  0  0
   -1.2420   -4.0173   -1.4696 C   0  0  0  0  0  0  0  0  0  0  0  0
   -1.1994   -3.0775   -0.4734 C   0  0  0  0  0  0  0  0  0  0  0  0
   -0.0451   -2.8050    0.1804 C   0  0  0  0  0  0  0  0  0  0  0  0
    0.5673    0.4990    0.3784 C   0  0  0  0  0  0  0  0  0  0  0  0
    0.8130    0.0652   -0.7282 O   0  0  0  0  0  0  0  0  0  0  0  0
    1.5191    1.1731    1.1545 N   0  0  0  0  0  0  0  0  0  0  0  0
    2.8667    1.4607    0.7961 C   0  0  0  0  0  0  0  0  0  0  0  0
    3.7358    0.2926    0.4956 C   0  0  0  0  0  0  0  0  0  0  0  0
    5.1131    0.7104    0.1382 C   0  0  0  0  0  0  0  0  0  0  0  0
    5.4264    0.9641   -1.1678 C   0  0  0  0  0  0  0  0  0  0  0  0
    6.6980    1.3530   -1.5292 C   0  0  0  0  0  0  0  0  0  0  0  0
    7.6827    1.4922   -0.5620 C   0  0  0  0  0  0  0  0  0  0  0  0
    8.9316    1.8846   -1.0003 O   0  0  0  0  0  0  0  0  0  0  0  0
    7.3870    1.2408    0.7626 C   0  0  0  0  0  0  0  0  0  0  0  0
    6.0910    0.8476    1.1070 C   0  0  0  0  0  0  0  0  0  0  0  0
  2  1  1  6
  2  3  1  0
  3  4  1  0
  4  5  1  0
  5  6  2  0
  6  7  1  0
  7  8  2  0
  2  9  1  0
  9 10  1  0
 10 11  2  0
 11 12  1  0
 12 13  2  0
 13 14  1  0
 14 15  2  0
 15 16  1  0
 16 17  1  0
 17 18  2  0
 18 19  1  0
 19 20  2  0
 20 21  1  0
 20 22  1  0
 22 23  2  0
 23 24  1  0
 15 25  1  0
 25 26  2  0
 25 27  1  0
 27 28  1  0
 27 29  1  0
 29 30  2  0
 31 32  1  0
 32 33  2  0
 32 34  1  0
 34 35  1  0
 35 36  1  0
 36 37  1  0
 37 38  1  0
 38 39  1  0
 39 40  2  0
 39 41  1  0
 41 42  1  0
 42 43  1  1
 43 44  1  0
 44 45  2  0
 45 46  1  0
 46 47  1  0
 47 48  2  0
 48 49  1  0
 49 50  2  0
 50 51  1  0
 51 52  2  0
 42 53  1  0
 53 54  2  0
 53 55  1  0
 55 56  1  0
 56 57  1  0
 57 58  1  0
 58 59  2  0
 59 60  1  0
 60 61  2  0
 61 62  1  0
 61 63  1  0
 63 64  2  0
  8  4  1  0
 30 10  1  0
 52 44  1  0
 64 58  1  0
 29 13  1  0
 52 47  1  0
 23 17  1  0
M  CHG  1  33   1
M  END

