
     RDKit          3D

 24 24  0  0  0  0  0  0  0  0999 V2000
    4.0461    3.7317    2.9740 C   0  0  0  0  0  0  0  0  0  0  0  0
    3.2447    3.2253    1.7678 C   0  0  0  0  0  0  0  0  0  0  0  0
    3.8683    3.8472    0.5325 C   0  0  0  0  0  0  0  0  0  0  0  0
    3.4335    1.7270    1.7888 C   0  0  0  0  0  0  0  0  0  0  0  0
    2.7293    1.0293    0.6901 C   0  0  0  0  0  0  0  0  0  0  0  0
    2.0802    1.7035   -0.1293 O   0  0  0  0  0  0  0  0  0  0  0  0
    2.7838   -0.3409    0.5685 N   0  0  0  0  0  0  0  0  0  0  0  0
    2.0036   -1.0124   -0.6300 C   0  0  1  0  0  0  0  0  0  0  0  0
    2.1262   -2.5536    0.0398 C   0  0  0  0  0  0  0  0  0  0  0  0
    1.4107   -3.3373   -1.0084 C   0  0  0  0  0  0  0  0  0  0  0  0
    1.9715   -3.2968   -2.3432 C   0  0  0  0  0  0  0  0  0  0  0  0
    1.3556   -4.0183   -3.3907 N   0  0  0  0  0  0  0  0  0  0  0  0
    2.9976   -2.6303   -2.5859 O   0  0  0  0  0  0  0  0  0  0  0  0
    0.5292   -0.7312   -0.0970 C   0  0  0  0  0  0  0  0  0  0  0  0
    0.3013   -0.1611    0.9435 O   0  0  0  0  0  0  0  0  0  0  0  0
   -0.5576   -1.1730   -0.8832 N   0  0  0  0  0  0  0  0  0  0  0  0
   -1.9594   -0.9710   -0.4917 C   0  0  0  0  0  0  0  0  0  0  0  0
   -2.2659    0.5091   -0.3495 C   0  0  0  0  0  0  0  0  0  0  0  0
   -3.6857    0.6284    0.0534 C   0  0  0  0  0  0  0  0  0  0  0  0
   -4.6544    0.7288   -0.9130 C   0  0  0  0  0  0  0  0  0  0  0  0
   -5.9725    0.8414   -0.5784 C   0  0  0  0  0  0  0  0  0  0  0  0
   -6.3593    0.8569    0.7404 C   0  0  0  0  0  0  0  0  0  0  0  0
   -5.3665    0.7542    1.7145 C   0  0  0  0  0  0  0  0  0  0  0  0
   -4.0607    0.6429    1.3698 C   0  0  0  0  0  0  0  0  0  0  0  0
  1  2  1  0
  2  3  1  0
  2  4  1  0
  4  5  1  0
  5  6  2  0
  5  7  1  0
  7  8  1  0
  8  9  1  1
  9 10  1  0
 10 11  1  0
 11 12  1  0
 11 13  2  0
  8 14  1  0
 14 15  2  0
 14 16  1  0
 16 17  1  0
 17 18  1  0
 18 19  1  0
 19 20  2  0
 20 21  1  0
 21 22  2  0
 22 23  1  0
 23 24  2  0
 24 19  1  0
M  END

