
     RDKit          3D

 52 54  0  0  0  0  0  0  0  0999 V2000
   -2.8881    2.4126   -3.9626 C   0  0  0  0  0  0  0  0  0  0  0  0
   -1.2546    2.8820   -3.3785 S   0  0  0  0  0  0  0  0  0  0  0  0
   -0.2078    1.4654   -3.0129 C   0  0  0  0  0  0  0  0  0  0  0  0
   -0.7228    0.6594   -1.8403 C   0  0  0  0  0  0  0  0  0  0  0  0
   -0.7352    1.6984   -0.5678 C   0  0  2  0  0  0  0  0  0  0  0  0
    0.7917    2.0080   -0.5907 N   0  0  0  0  0  0  0  0  0  0  0  0
    1.7045    1.0286   -0.9733 C   0  0  0  0  0  0  0  0  0  0  0  0
    1.2885   -0.0927   -1.2994 O   0  0  0  0  0  0  0  0  0  0  0  0
    3.1513    1.3219   -0.9901 C   0  0  0  0  0  0  0  0  0  0  0  0
    3.9611    0.1084   -1.4434 C   0  0  0  0  0  0  0  0  0  0  0  0
    3.7193   -1.0634   -0.4867 C   0  0  0  0  0  0  0  0  0  0  0  0
    4.1781   -0.5780    0.8934 C   0  0  0  0  0  0  0  0  0  0  0  0
    3.9550   -1.7079    1.8695 C   0  0  0  0  0  0  0  0  0  0  0  0
    4.6855   -2.8876    1.5293 N   0  0  0  0  0  4  0  0  0  0  0  0
   -0.7126    0.5391    0.5453 C   0  0  0  0  0  0  0  0  0  0  0  0
    0.2979    0.1787    1.0951 O   0  0  0  0  0  0  0  0  0  0  0  0
   -1.9807   -0.0406    0.8422 N   0  0  0  0  0  0  0  0  0  0  0  0
   -1.9893   -1.0913    1.8442 C   0  0  0  0  0  0  0  0  0  0  0  0
   -3.3983   -1.6033    2.0447 C   0  0  0  0  0  0  0  0  0  0  0  0
   -4.3266   -0.5447    2.4967 C   0  0  0  0  0  0  0  0  0  0  0  0
   -5.6697   -0.8267    2.7270 N   0  0  0  0  0  0  0  0  0  0  0  0
   -3.8472    0.6008    2.6582 O   0  0  0  0  0  0  0  0  0  0  0  0
   -5.1558    1.1764    0.3761 C   0  0  0  0  0  0  0  0  0  0  0  0
   -4.9456    1.4576   -1.2367 C   0  0  2  0  0  0  0  0  0  0  0  0
   -4.4840   -0.0893   -1.5569 C   0  0  0  0  0  0  0  0  0  0  0  0
   -5.6584   -0.8437   -1.1320 N   0  0  0  0  0  0  0  0  0  0  0  0
   -6.7168   -1.1882   -1.8517 N   0  0  0  0  0  0  0  0  0  0  0  0
   -7.5886   -1.8802   -1.1023 C   0  0  0  0  0  0  0  0  0  0  0  0
   -7.0375   -1.9601    0.1253 N   0  0  0  0  0  0  0  0  0  0  0  0
   -5.8911   -1.3344    0.0743 N   0  0  0  0  0  0  0  0  0  0  0  0
   -3.4893    2.0135   -1.1184 N   0  0  0  0  0  0  0  0  0  0  0  0
   -2.4864    1.2573   -0.5629 C   0  0  0  0  0  0  0  0  0  0  0  0
   -2.6183    0.0017   -0.0720 N   0  0  0  0  0  0  0  0  0  0  0  0
   -1.5666   -0.6530    0.4529 C   0  0  0  0  0  0  0  0  0  0  0  0
   -0.3231   -0.0727    0.5099 C   0  0  0  0  0  0  0  0  0  0  0  0
    0.7931   -0.6899    1.0348 C   0  0  0  0  0  0  0  0  0  0  0  0
    1.9996   -0.0135    1.0429 C   0  0  0  0  0  0  0  0  0  0  0  0
    3.1146   -0.6268    1.5658 O   0  0  0  0  0  0  0  0  0  0  0  0
    4.2767   -0.8898    0.8729 C   0  0  0  0  0  0  0  0  0  0  0  0
    4.4991   -0.5816   -0.4394 C   0  0  0  0  0  0  0  0  0  0  0  0
    5.6955   -0.8803   -1.0606 C   0  0  0  0  0  0  0  0  0  0  0  0
    6.7333   -1.5061   -0.3932 C   0  0  0  0  0  0  0  0  0  0  0  0
    7.8985   -1.7885   -1.0264 F   0  0  0  0  0  0  0  0  0  0  0  0
    6.5068   -1.8163    0.9311 C   0  0  0  0  0  0  0  0  0  0  0  0
    5.3003   -1.5147    1.5565 C   0  0  0  0  0  0  0  0  0  0  0  0
    5.1146   -1.8414    2.8802 F   0  0  0  0  0  0  0  0  0  0  0  0
    2.1191    1.2640    0.5399 C   0  0  0  0  0  0  0  0  0  0  0  0
    3.2311    1.8938    0.5447 O   0  0  0  0  0  0  0  0  0  0  0  0
    1.0161    1.8360    0.0370 N   0  0  0  0  0  0  0  0  0  0  0  0
    1.1166    3.1959   -0.5048 C   0  0  0  0  0  0  0  0  0  0  0  0
   -0.1895    1.2050    0.0103 C   0  0  0  0  0  0  0  0  0  0  0  0
   -1.2637    1.8051   -0.4974 N   0  0  0  0  0  0  0  0  0  0  0  0
  1  2  1  0
  2  3  1  0
  3  4  1  0
  5  4  1  6
  5  6  1  0
  6  7  1  0
  7  8  2  0
  7  9  1  0
  9 10  1  0
 10 11  1  0
 11 12  1  0
 12 13  1  0
 13 14  1  0
  5 15  1  0
 15 16  2  0
 15 17  1  0
 17 18  1  0
 18 19  1  0
 19 20  1  0
 20 21  1  0
 20 22  2  0
 24 23  1  1
 24 25  1  0
 25 26  1  0
 26 27  1  0
 27 28  2  0
 28 29  1  0
 29 30  2  0
 24 31  1  0
 31 32  1  0
 32 33  2  0
 33 34  1  0
 34 35  2  0
 35 36  1  0
 36 37  2  0
 37 38  1  0
 38 39  1  0
 39 40  2  0
 40 41  1  0
 41 42  2  0
 42 43  1  0
 42 44  1  0
 44 45  2  0
 45 46  1  0
 37 47  1  0
 47 48  2  0
 47 49  1  0
 49 50  1  0
 49 51  1  0
 51 52  2  0
 30 26  1  0
 52 32  1  0
 51 35  1  0
 45 39  1  0
M  CHG  1  14   1
M  END

