
     RDKit          3D

 21 20  0  0  0  0  0  0  0  0999 V2000
   -1.6852   -3.8394    0.6046 C   0  0  0  0  0  0  0  0  0  0  0  0
   -1.6819   -2.5367   -0.1628 C   0  0  0  0  0  0  0  0  0  0  0  0
   -1.2202   -2.8888   -1.5813 C   0  0  0  0  0  0  0  0  0  0  0  0
   -0.6446   -1.6509    0.5181 C   0  0  0  0  0  0  0  0  0  0  0  0
   -0.7252   -0.2690   -0.3924 C   0  0  2  0  0  0  0  0  0  0  0  0
    0.3782    0.4790    0.4450 N   0  0  0  0  0  0  0  0  0  0  0  0
    1.6297   -0.1657    0.5447 C   0  0  0  0  0  0  0  0  0  0  0  0
    1.7944   -1.2560   -0.0147 O   0  0  0  0  0  0  0  0  0  0  0  0
    2.6866    0.5407    1.3410 C   0  0  0  0  0  0  0  0  0  0  0  0
    3.9085   -0.3658    1.2900 C   0  0  0  0  0  0  0  0  0  0  0  0
    4.2635   -0.5004   -0.1803 C   0  0  0  0  0  0  0  0  0  0  0  0
    4.5547    0.9018   -0.6818 C   0  0  0  0  0  0  0  0  0  0  0  0
    5.6978    1.4706    0.1014 C   0  0  0  0  0  0  0  0  0  0  0  0
    5.9867    2.8097   -0.3670 N   0  0  0  0  0  4  0  0  0  0  0  0
   -1.9833    0.3437    0.4222 C   0  0  0  0  0  0  0  0  0  0  0  0
   -1.8050    1.1135    1.3371 O   0  0  0  0  0  0  0  0  0  0  0  0
   -3.2193   -0.1208   -0.0600 N   0  0  0  0  0  0  0  0  0  0  0  0
   -4.4583    0.1862    0.3557 C   0  0  0  0  0  0  0  0  0  0  0  0
   -4.9992    1.6805    0.1263 C   0  0  1  0  0  0  0  0  0  0  0  0
   -3.5710    2.4731    0.2104 C   0  0  0  0  0  0  0  0  0  0  0  0
   -4.9069    1.5946   -1.4289 O   0  0  0  0  0  0  0  0  0  0  0  0
  1  2  1  0
  2  3  1  0
  2  4  1  0
  5  4  1  1
  5  6  1  0
  6  7  1  0
  7  8  2  0
  7  9  1  0
  9 10  1  0
 10 11  1  0
 11 12  1  0
 12 13  1  0
 13 14  1  0
  5 15  1  0
 15 16  2  0
 15 17  1  0
 17 18  1  0
 18 19  1  0
 19 20  1  1
 19 21  1  0
M  CHG  1  14   1
M  END

