
     RDKit          3D

 57 60  0  0  0  0  0  0  0  0999 V2000
   -3.6535   -2.2901    2.8051 C   0  0  0  0  0  0  0  0  0  0  0  0
   -4.8388   -1.5225    1.9073 C   0  0  1  0  0  0  0  0  0  0  0  0
   -5.5037   -0.9311    3.1633 O   0  0  0  0  0  0  0  0  0  0  0  0
   -3.8973   -0.1677    1.6696 C   0  0  0  0  0  0  0  0  0  0  0  0
   -2.6976   -0.6460    0.9618 C   0  0  0  0  0  0  0  0  0  0  0  0
   -2.5991   -1.8768    0.6932 O   0  0  0  0  0  0  0  0  0  0  0  0
   -1.6755    0.2734    0.5919 N   0  0  0  0  0  0  0  0  0  0  0  0
   -0.4592   -0.4187   -0.1638 C   0  0  1  0  0  0  0  0  0  0  0  0
   -0.5534    0.6811   -1.4462 C   0  0  0  0  0  0  0  0  0  0  0  0
   -1.9081    0.4931   -1.9714 C   0  0  0  0  0  0  0  0  0  0  0  0
   -2.3063   -0.3664   -2.9457 C   0  0  0  0  0  0  0  0  0  0  0  0
   -3.6538   -0.4117   -3.3236 C   0  0  0  0  0  0  0  0  0  0  0  0
   -4.6068    0.3917   -2.7393 C   0  0  0  0  0  0  0  0  0  0  0  0
   -5.9378    0.3256   -3.1345 O   0  0  0  0  0  0  0  0  0  0  0  0
   -4.2143    1.2624   -1.7551 C   0  0  0  0  0  0  0  0  0  0  0  0
   -2.9000    1.2980   -1.3953 C   0  0  0  0  0  0  0  0  0  0  0  0
    0.6909    0.4347    0.5908 C   0  0  0  0  0  0  0  0  0  0  0  0
    0.4102    1.2755    1.4126 O   0  0  0  0  0  0  0  0  0  0  0  0
    2.0213    0.0917    0.1882 N   0  0  0  0  0  0  0  0  0  0  0  0
    3.0383    0.8899    0.8952 C   0  0  0  0  0  0  0  0  0  0  0  0
    4.3813    0.4141    0.3876 C   0  0  0  0  0  0  0  0  0  0  0  0
    4.5928   -1.0303    0.6650 C   0  0  0  0  0  0  0  0  0  0  0  0
    5.8687   -1.6406    0.2359 C   0  0  0  0  0  0  0  0  0  0  0  0
    7.0458   -1.1108    0.7938 N   0  0  0  0  0  0  0  0  0  0  0  0
    7.5830    0.1741    0.6625 C   0  0  0  0  0  0  0  0  0  0  0  0
    8.8052    0.5549    1.3084 N   0  0  0  0  0  0  0  0  0  0  0  0
    6.9677    1.0456   -0.0572 N   0  0  0  0  0  4  0  0  0  0  0  0
   -4.0572   -1.2648   -1.7274 C   0  0  0  0  0  0  0  0  0  0  0  0
   -4.7655   -1.9301   -0.3936 C   0  0  2  0  0  0  0  0  0  0  0  0
   -4.2160   -0.7561    0.6221 C   0  0  0  0  0  0  0  0  0  0  0  0
   -4.8235    0.4620    0.0563 N   0  0  0  0  0  0  0  0  0  0  0  0
   -5.9756    1.0038    0.3453 N   0  0  0  0  0  0  0  0  0  0  0  0
   -6.1258    2.0940   -0.4104 C   0  0  0  0  0  0  0  0  0  0  0  0
   -5.0372    2.2196   -1.1796 N   0  0  0  0  0  0  0  0  0  0  0  0
   -4.2553    1.2014   -0.8695 N   0  0  0  0  0  0  0  0  0  0  0  0
   -3.6297   -2.9432   -0.0950 N   0  0  0  0  0  0  0  0  0  0  0  0
   -2.3291   -2.5209    0.1620 C   0  0  0  0  0  0  0  0  0  0  0  0
   -1.4341   -3.4760    0.4034 N   0  0  0  0  0  0  0  0  0  0  0  0
   -0.1503   -3.2344    0.6687 C   0  0  0  0  0  0  0  0  0  0  0  0
    0.2721   -1.9171    0.6937 C   0  0  0  0  0  0  0  0  0  0  0  0
    1.5623   -1.5500    0.9545 C   0  0  0  0  0  0  0  0  0  0  0  0
    2.0262   -0.2500    0.9899 C   0  0  0  0  0  0  0  0  0  0  0  0
    3.3500    0.0319    1.2622 O   0  0  0  0  0  0  0  0  0  0  0  0
    4.1991    0.6996    0.4030 C   0  0  0  0  0  0  0  0  0  0  0  0
    4.7493    1.8774    0.8647 C   0  0  0  0  0  0  0  0  0  0  0  0
    5.6053    2.6146    0.0860 C   0  0  0  0  0  0  0  0  0  0  0  0
    5.9111    2.1548   -1.1809 C   0  0  0  0  0  0  0  0  0  0  0  0
    6.7597    2.8912   -1.9453 F   0  0  0  0  0  0  0  0  0  0  0  0
    5.3519    0.9646   -1.6409 C   0  0  0  0  0  0  0  0  0  0  0  0
    4.4985    0.2289   -0.8655 C   0  0  0  0  0  0  0  0  0  0  0  0
    3.9535   -0.9140   -1.2905 F   0  0  0  0  0  0  0  0  0  0  0  0
    1.0716    0.7142    0.7352 C   0  0  0  0  0  0  0  0  0  0  0  0
    1.4511    1.9172    0.7572 O   0  0  0  0  0  0  0  0  0  0  0  0
   -0.2275    0.3856    0.4705 N   0  0  0  0  0  0  0  0  0  0  0  0
   -1.1736    1.4444    0.2141 C   0  0  0  0  0  0  0  0  0  0  0  0
   -0.6474   -0.9023    0.4440 C   0  0  0  0  0  0  0  0  0  0  0  0
   -1.9138   -1.2463    0.1876 N   0  0  0  0  0  0  0  0  0  0  0  0
  2  1  1  1
  2  3  1  0
  2  4  1  0
  4  5  1  0
  5  6  2  0
  5  7  1  0
  7  8  1  0
  8  9  1  6
  9 10  1  0
 10 11  2  0
 11 12  1  0
 12 13  2  0
 13 14  1  0
 13 15  1  0
 15 16  2  0
  8 17  1  0
 17 18  2  0
 17 19  1  0
 19 20  1  0
 20 21  1  0
 21 22  1  0
 22 23  1  0
 23 24  1  0
 24 25  1  0
 25 26  1  0
 25 27  2  0
 29 28  1  6
 29 30  1  0
 30 31  1  0
 31 32  1  0
 32 33  2  0
 33 34  1  0
 34 35  2  0
 29 36  1  0
 36 37  1  0
 37 38  2  0
 38 39  1  0
 39 40  2  0
 40 41  1  0
 41 42  2  0
 42 43  1  0
 43 44  1  0
 44 45  2  0
 45 46  1  0
 46 47  2  0
 47 48  1  0
 47 49  1  0
 49 50  2  0
 50 51  1  0
 42 52  1  0
 52 53  2  0
 52 54  1  0
 54 55  1  0
 54 56  1  0
 56 57  2  0
 16 10  1  0
 35 31  1  0
 57 37  1  0
 56 40  1  0
 50 44  1  0
M  CHG  1  27   1
M  END

