
     RDKit          3D

 27 28  0  0  0  0  0  0  0  0999 V2000
   -5.3449    0.1582   -1.3040 C   0  0  0  0  0  0  0  0  0  0  0  0
   -6.0355    1.6870   -1.9748 S   0  0  0  0  0  0  0  0  0  0  0  0
   -4.7026    2.9263   -2.0190 C   0  0  0  0  0  0  0  0  0  0  0  0
   -3.6526    2.4812   -3.0192 C   0  0  0  0  0  0  0  0  0  0  0  0
   -3.0757    1.1196   -2.6039 C   0  0  0  0  0  0  0  0  0  0  0  0
   -2.4504    1.2298   -1.2435 C   0  0  0  0  0  0  0  0  0  0  0  0
   -2.4460    2.3768   -0.7110 O   0  0  0  0  0  0  0  0  0  0  0  0
   -1.8899    0.1060   -0.5811 N   0  0  0  0  0  0  0  0  0  0  0  0
   -1.3031    0.4586    0.8184 C   0  0  1  0  0  0  0  0  0  0  0  0
   -1.3007   -1.0876    1.3468 C   0  0  0  0  0  0  0  0  0  0  0  0
   -2.6770   -1.5692    1.3055 C   0  0  0  0  0  0  0  0  0  0  0  0
   -3.2265   -2.1885    0.2087 C   0  0  0  0  0  0  0  0  0  0  0  0
   -4.5051   -2.5192    0.4621 N   0  0  0  0  0  0  0  0  0  0  0  0
   -4.7487   -2.1062    1.7129 C   0  0  0  0  0  0  0  0  0  0  0  0
   -3.6339   -1.5213    2.2402 N   0  0  0  0  0  0  0  0  0  0  0  0
    0.2027    0.4994    0.3799 C   0  0  0  0  0  0  0  0  0  0  0  0
    0.5822    0.2900   -0.7707 O   0  0  0  0  0  0  0  0  0  0  0  0
    1.1880    0.7895    1.3438 N   0  0  0  0  0  0  0  0  0  0  0  0
    2.6088    0.8497    1.0359 C   0  0  0  0  0  0  0  0  0  0  0  0
    3.0571   -0.5184    0.4994 C   0  0  0  0  0  0  0  0  0  0  0  0
    4.4913   -0.5046    0.1575 C   0  0  0  0  0  0  0  0  0  0  0  0
    5.4043   -0.8290    1.1520 C   0  0  0  0  0  0  0  0  0  0  0  0
    6.7302   -0.8123    0.8174 C   0  0  0  0  0  0  0  0  0  0  0  0
    7.1478   -0.4873   -0.4532 C   0  0  0  0  0  0  0  0  0  0  0  0
    8.5113   -0.4892   -0.7292 O   0  0  0  0  0  0  0  0  0  0  0  0
    6.2040   -0.1679   -1.4229 C   0  0  0  0  0  0  0  0  0  0  0  0
    4.8647   -0.1715   -1.1318 C   0  0  0  0  0  0  0  0  0  0  0  0
  1  2  1  0
  2  3  1  0
  3  4  1  0
  4  5  1  0
  5  6  1  0
  6  7  2  0
  6  8  1  0
  8  9  1  0
  9 10  1  1
 10 11  1  0
 11 12  2  0
 12 13  1  0
 13 14  1  0
 14 15  2  0
  9 16  1  0
 16 17  2  0
 16 18  1  0
 18 19  1  0
 19 20  1  0
 20 21  1  0
 21 22  2  0
 22 23  1  0
 23 24  2  0
 24 25  1  0
 24 26  1  0
 26 27  2  0
 15 11  1  0
 27 21  1  0
M  END

