
     RDKit          3D

 16 15  0  0  0  0  0  0  0  0999 V2000
   -5.1176   -1.3041    1.3049 C   0  0  0  0  0  0  0  0  0  0  0  0
   -4.6077   -1.0661   -0.0770 C   0  0  0  0  0  0  0  0  0  0  0  0
   -3.4916   -0.1117   -0.0704 C   0  0  0  0  0  0  0  0  0  0  0  0
   -3.1365    0.3693    1.0187 O   0  0  0  0  0  0  0  0  0  0  0  0
   -2.8445    0.2536   -1.2137 N   0  0  0  0  0  0  0  0  0  0  0  0
   -1.6537    1.2608   -1.2508 C   0  0  1  0  0  0  0  0  0  0  0  0
   -1.8522    1.8907    0.2702 C   0  0  0  0  0  0  0  0  0  0  0  0
   -0.4913    0.2215   -0.9088 C   0  0  0  0  0  0  0  0  0  0  0  0
   -0.7191   -0.9589   -0.6730 O   0  0  0  0  0  0  0  0  0  0  0  0
    0.8148    0.7026   -0.8895 N   0  0  0  0  0  0  0  0  0  0  0  0
    2.0046   -0.0753   -0.6107 C   0  0  0  0  0  0  0  0  0  0  0  0
    3.2339    0.8240   -0.7092 C   0  0  0  0  0  0  0  0  0  0  0  0
    4.4944    0.0511   -0.4320 C   0  0  0  0  0  0  0  0  0  0  0  0
    4.4280   -0.4923    0.9339 C   0  0  0  0  0  0  0  0  0  0  0  0
    5.4813   -1.3338    1.3883 N   0  0  0  0  0  0  0  0  0  0  0  0
    3.4573   -0.2315    1.7250 O   0  0  0  0  0  0  0  0  0  0  0  0
  1  2  1  0
  2  3  1  0
  3  4  2  0
  3  5  1  0
  5  6  1  0
  6  7  1  1
  6  8  1  0
  8  9  2  0
  8 10  1  0
 10 11  1  0
 11 12  1  0
 12 13  1  0
 13 14  1  0
 14 15  1  0
 14 16  2  0
M  END

