
     RDKit          3D

 61 65  0  0  0  0  0  0  0  0999 V2000
    3.9012   -2.1031   -2.2165 C   0  0  0  0  0  0  0  0  0  0  0  0
    4.9638   -1.1815   -1.3592 C   0  0  2  0  0  0  0  0  0  0  0  0
    4.5350   -1.8022    0.0934 C   0  0  0  0  0  0  0  0  0  0  0  0
    5.3731   -1.1165    1.0665 N   0  0  0  0  0  0  0  0  0  0  0  0
    6.5576   -1.4554    1.5158 N   0  0  0  0  0  0  0  0  0  0  0  0
    6.9686   -0.5344    2.4070 C   0  0  0  0  0  0  0  0  0  0  0  0
    5.9955    0.3964    2.4996 N   0  0  0  0  0  0  0  0  0  0  0  0
    5.0512    0.0002    1.6697 N   0  0  0  0  0  0  0  0  0  0  0  0
    4.0486    0.0662   -1.2859 N   0  0  0  0  0  0  0  0  0  0  0  0
    2.7630   -0.1818   -0.7967 C   0  0  0  0  0  0  0  0  0  0  0  0
    2.3816   -1.4136   -0.4349 N   0  0  0  0  0  0  0  0  0  0  0  0
    1.1579   -1.6810    0.0367 C   0  0  0  0  0  0  0  0  0  0  0  0
    0.2051   -0.6863    0.1788 C   0  0  0  0  0  0  0  0  0  0  0  0
   -1.0480   -0.9816    0.6657 C   0  0  0  0  0  0  0  0  0  0  0  0
   -1.9272    0.0948    0.7672 C   0  0  0  0  0  0  0  0  0  0  0  0
   -3.1941   -0.1211    1.2440 O   0  0  0  0  0  0  0  0  0  0  0  0
   -4.2806    0.1831    0.4241 C   0  0  0  0  0  0  0  0  0  0  0  0
   -4.1757    0.6868   -0.8352 C   0  0  0  0  0  0  0  0  0  0  0  0
   -5.3248    0.9526   -1.5620 C   0  0  0  0  0  0  0  0  0  0  0  0
   -6.5904    0.7302   -1.0687 C   0  0  0  0  0  0  0  0  0  0  0  0
   -7.7119    1.0020   -1.8090 F   0  0  0  0  0  0  0  0  0  0  0  0
   -6.6895    0.2140    0.2223 C   0  0  0  0  0  0  0  0  0  0  0  0
   -5.5399   -0.0465    0.9358 C   0  0  0  0  0  0  0  0  0  0  0  0
   -5.6732   -0.5515    2.1970 F   0  0  0  0  0  0  0  0  0  0  0  0
   -1.5634    1.3656    0.4042 C   0  0  0  0  0  0  0  0  0  0  0  0
   -2.3796    2.3186    0.5071 O   0  0  0  0  0  0  0  0  0  0  0  0
   -0.3186    1.5674   -0.0624 N   0  0  0  0  0  0  0  0  0  0  0  0
    0.0864    2.9021   -0.4515 C   0  0  0  0  0  0  0  0  0  0  0  0
    0.5957    0.5828   -0.1931 C   0  0  0  0  0  0  0  0  0  0  0  0
    1.8324    0.7935   -0.6585 N   0  0  0  0  0  0  0  0  0  0  0  0
    7.8326   -3.1489    1.0295 N   0  0  0  0  0  0  0  0  0  0  0  0
    6.5928   -2.4891    0.6818 C   0  0  0  0  0  0  0  0  0  0  0  0
    6.5171   -1.2218    0.7966 N   0  0  0  0  0  4  0  0  0  0  0  0
    5.5595   -3.2754    0.2431 N   0  0  0  0  0  0  0  0  0  0  0  0
    4.2573   -3.0830   -0.1817 C   0  0  0  0  0  0  0  0  0  0  0  0
    4.1271   -2.2248   -1.3835 C   0  0  0  0  0  0  0  0  0  0  0  0
    4.5663   -0.8192   -1.0946 C   0  0  0  0  0  0  0  0  0  0  0  0
    3.5866   -0.2761   -0.0149 C   0  0  0  0  0  0  0  0  0  0  0  0
    2.3047   -0.3791   -0.6873 N   0  0  0  0  0  0  0  0  0  0  0  0
    1.1413    0.0433    0.0065 C   0  0  0  0  0  0  0  0  0  0  0  0
    1.1823    0.4778    1.1133 O   0  0  0  0  0  0  0  0  0  0  0  0
   -0.2264   -0.1183   -0.8369 C   0  0  2  0  0  0  0  0  0  0  0  0
   -0.0587    1.2814   -1.7215 C   0  0  0  0  0  0  0  0  0  0  0  0
   -0.0012    2.3847   -0.8047 C   0  0  0  0  0  0  0  0  0  0  0  0
    1.1688    2.8758   -0.2708 C   0  0  0  0  0  0  0  0  0  0  0  0
    1.1552    3.9431    0.6046 C   0  0  0  0  0  0  0  0  0  0  0  0
   -0.0430    4.5361    0.9591 C   0  0  0  0  0  0  0  0  0  0  0  0
   -0.0516    5.6174    1.8465 O   0  0  0  0  0  0  0  0  0  0  0  0
   -1.2277    4.0666    0.4414 C   0  0  0  0  0  0  0  0  0  0  0  0
   -1.1704    3.0013   -0.4283 C   0  0  0  0  0  0  0  0  0  0  0  0
   -1.1766    0.4555    0.2866 N   0  0  0  0  0  0  0  0  0  0  0  0
   -2.5607    0.3643   -0.0892 C   0  0  0  0  0  0  0  0  0  0  0  0
   -2.8277   -0.1297   -1.2008 O   0  0  0  0  0  0  0  0  0  0  0  0
   -3.5420    0.8704    0.8901 C   0  0  0  0  0  0  0  0  0  0  0  0
   -4.9560    0.6188    0.5201 C   0  0  0  0  0  0  0  0  0  0  0  0
   -5.1655   -0.8556    0.4277 C   0  0  0  0  0  0  0  0  0  0  0  0
   -5.0423   -1.5563   -0.7329 C   0  0  0  0  0  0  0  0  0  0  0  0
   -5.2289   -2.9139   -0.7644 C   0  0  0  0  0  0  0  0  0  0  0  0
   -5.5479   -3.6064    0.3850 C   0  0  0  0  0  0  0  0  0  0  0  0
   -5.6756   -2.8994    1.5690 C   0  0  0  0  0  0  0  0  0  0  0  0
   -5.4892   -1.5396    1.6055 C   0  0  0  0  0  0  0  0  0  0  0  0
  2  1  1  6
  2  3  1  0
  3  4  1  0
  4  5  1  0
  5  6  2  0
  6  7  1  0
  7  8  2  0
  2  9  1  0
  9 10  1  0
 10 11  2  0
 11 12  1  0
 12 13  2  0
 13 14  1  0
 14 15  2  0
 15 16  1  0
 16 17  1  0
 17 18  2  0
 18 19  1  0
 19 20  2  0
 20 21  1  0
 20 22  1  0
 22 23  2  0
 23 24  1  0
 15 25  1  0
 25 26  2  0
 25 27  1  0
 27 28  1  0
 27 29  1  0
 29 30  2  0
 31 32  1  0
 32 33  2  0
 32 34  1  0
 34 35  1  0
 35 36  1  0
 36 37  1  0
 37 38  1  0
 38 39  1  0
 39 40  1  0
 40 41  2  0
 40 42  1  0
 42 43  1  6
 43 44  1  0
 44 45  2  0
 45 46  1  0
 46 47  2  0
 47 48  1  0
 47 49  1  0
 49 50  2  0
 42 51  1  0
 51 52  1  0
 52 53  2  0
 52 54  1  0
 54 55  1  0
 55 56  1  0
 56 57  2  0
 57 58  1  0
 58 59  2  0
 59 60  1  0
 60 61  2  0
  8  4  1  0
 30 10  1  0
 50 44  1  0
 61 56  1  0
 29 13  1  0
 23 17  1  0
M  CHG  1  33   1
M  END

