
     RDKit          3D

 53 56  0  0  0  0  0  0  0  0999 V2000
    5.9210    1.8851   -1.6785 C   0  0  0  0  0  0  0  0  0  0  0  0
    5.1972    1.5096   -0.3674 C   0  0  0  0  0  0  0  0  0  0  0  0
    3.9986    2.5921   -0.4877 C   0  0  2  0  0  0  0  0  0  0  0  0
    3.3057    2.1810    0.9244 C   0  0  0  0  0  0  0  0  0  0  0  0
    3.0649    1.6164   -1.4229 C   0  0  0  0  0  0  0  0  0  0  0  0
    2.7428    0.4179   -0.6816 C   0  0  0  0  0  0  0  0  0  0  0  0
    3.4227    0.0770    0.3372 O   0  0  0  0  0  0  0  0  0  0  0  0
    1.6664   -0.3872   -1.0782 N   0  0  0  0  0  0  0  0  0  0  0  0
    1.3279   -1.6321   -0.2370 C   0  0  2  0  0  0  0  0  0  0  0  0
   -0.2683   -1.4435   -0.2940 C   0  0  0  0  0  0  0  0  0  0  0  0
   -0.7713   -2.2098   -1.1533 O   0  0  0  0  0  0  0  0  0  0  0  0
   -1.0123   -0.6203    0.4262 N   0  0  0  0  0  0  0  0  0  0  0  0
   -2.3629   -0.3658    0.5215 C   0  0  0  0  0  0  0  0  0  0  0  0
   -3.0032   -0.0621   -0.8046 C   0  0  0  0  0  0  0  0  0  0  0  0
   -4.4240    0.2923   -0.4656 C   0  0  0  0  0  0  0  0  0  0  0  0
   -5.4243   -0.6006   -0.2285 C   0  0  0  0  0  0  0  0  0  0  0  0
   -6.5108    0.1505    0.0668 N   0  0  0  0  0  0  0  0  0  0  0  0
   -6.1656    1.4725    0.0103 C   0  0  0  0  0  0  0  0  0  0  0  0
   -4.8748    1.5179   -0.3197 N   0  0  0  0  0  0  0  0  0  0  0  0
    1.6729   -1.0761    1.2857 C   0  0  1  0  0  0  0  0  0  0  0  0
    0.7087    0.1792    1.4317 C   0  0  0  0  0  0  0  0  0  0  0  0
    0.7510   -2.0410    2.1623 C   0  0  0  0  0  0  0  0  0  0  0  0
    1.0376   -3.4530    2.0529 C   0  0  0  0  0  0  0  0  0  0  0  0
    4.1412    0.1984    1.2598 C   0  0  0  0  0  0  0  0  0  0  0  0
    4.4571    1.6295    0.4959 C   0  0  1  0  0  0  0  0  0  0  0  0
    5.9827    1.1944    0.0829 C   0  0  0  0  0  0  0  0  0  0  0  0
    5.7793    0.0112   -0.7121 N   0  0  0  0  0  0  0  0  0  0  0  0
    5.7381   -1.2342   -0.2419 N   0  0  0  0  0  0  0  0  0  0  0  0
    5.5337   -2.0663   -1.2652 C   0  0  0  0  0  0  0  0  0  0  0  0
    5.4545   -1.3004   -2.3442 N   0  0  0  0  0  0  0  0  0  0  0  0
    5.6009   -0.0492   -2.0232 N   0  0  0  0  0  0  0  0  0  0  0  0
    3.7958    1.2062   -0.8493 N   0  0  0  0  0  0  0  0  0  0  0  0
    2.4195    0.8830   -0.7148 C   0  0  0  0  0  0  0  0  0  0  0  0
    1.6742    0.4934   -1.7703 N   0  0  0  0  0  0  0  0  0  0  0  0
    0.3780    0.1966   -1.6039 C   0  0  0  0  0  0  0  0  0  0  0  0
   -0.2371    0.2743   -0.3750 C   0  0  0  0  0  0  0  0  0  0  0  0
   -1.5529   -0.0156   -0.1456 C   0  0  0  0  0  0  0  0  0  0  0  0
   -2.0918    0.0884    1.1202 C   0  0  0  0  0  0  0  0  0  0  0  0
   -3.4167   -0.1921    1.4112 O   0  0  0  0  0  0  0  0  0  0  0  0
   -4.2829   -0.6025    0.4070 C   0  0  0  0  0  0  0  0  0  0  0  0
   -3.8398   -0.7371   -0.8915 C   0  0  0  0  0  0  0  0  0  0  0  0
   -4.7235   -1.1493   -1.8817 C   0  0  0  0  0  0  0  0  0  0  0  0
   -6.0260   -1.4171   -1.5538 C   0  0  0  0  0  0  0  0  0  0  0  0
   -6.8677   -1.8216   -2.5596 F   0  0  0  0  0  0  0  0  0  0  0  0
   -6.4946   -1.2906   -0.2640 C   0  0  0  0  0  0  0  0  0  0  0  0
   -5.5965   -0.8748    0.7260 C   0  0  0  0  0  0  0  0  0  0  0  0
   -5.9838   -0.7281    2.0137 F   0  0  0  0  0  0  0  0  0  0  0  0
   -1.2925    0.4931    2.1836 C   0  0  0  0  0  0  0  0  0  0  0  0
   -1.7339    0.6045    3.3580 O   0  0  0  0  0  0  0  0  0  0  0  0
   -0.0101    0.7710    1.9356 N   0  0  0  0  0  0  0  0  0  0  0  0
    0.8481    1.1986    3.0409 C   0  0  0  0  0  0  0  0  0  0  0  0
    0.5328    0.6725    0.6936 C   0  0  0  0  0  0  0  0  0  0  0  0
    1.8140    0.9543    0.4676 N   0  0  0  0  0  0  0  0  0  0  0  0
  1  2  1  0
  2  3  1  0
  3  4  1  1
  3  5  1  0
  5  6  1  0
  6  7  2  0
  6  8  1  0
  9  8  1  6
  9 10  1  0
 10 11  2  0
 10 12  1  0
 12 13  1  0
 13 14  1  0
 14 15  1  0
 15 16  2  0
 16 17  1  0
 17 18  1  0
 18 19  2  0
  9 20  1  0
 20 21  1  6
 20 22  1  0
 22 23  1  0
 25 24  1  6
 25 26  1  0
 26 27  1  0
 27 28  1  0
 28 29  2  0
 29 30  1  0
 30 31  2  0
 25 32  1  0
 32 33  1  0
 33 34  2  0
 34 35  1  0
 35 36  2  0
 36 37  1  0
 37 38  2  0
 38 39  1  0
 39 40  1  0
 40 41  2  0
 41 42  1  0
 42 43  2  0
 43 44  1  0
 43 45  1  0
 45 46  2  0
 46 47  1  0
 38 48  1  0
 48 49  2  0
 48 50  1  0
 50 51  1  0
 50 52  1  0
 52 53  2  0
 19 15  1  0
 31 27  1  0
 53 33  1  0
 52 36  1  0
 46 40  1  0
M  END

