
     RDKit          3D

 54 57  0  0  0  0  0  0  0  0999 V2000
    5.4336    1.5968    1.9077 C   0  0  0  0  0  0  0  0  0  0  0  0
    4.2031    0.8015    1.5953 C   0  0  0  0  0  0  0  0  0  0  0  0
    4.4908   -0.5826    1.0843 C   0  0  0  0  0  0  0  0  0  0  0  0
    3.4093    1.5710    0.5519 C   0  0  0  0  0  0  0  0  0  0  0  0
    2.1765    0.8196    0.2091 C   0  0  0  0  0  0  0  0  0  0  0  0
    1.9538   -0.2737    0.7473 O   0  0  0  0  0  0  0  0  0  0  0  0
    1.2822    1.3463   -0.7105 N   0  0  0  0  0  0  0  0  0  0  0  0
   -0.0246    0.5866   -1.0740 C   0  0  1  0  0  0  0  0  0  0  0  0
    0.6034   -0.7818   -1.6366 C   0  0  0  0  0  0  0  0  0  0  0  0
    1.3772   -0.7055   -2.7810 C   0  0  0  0  0  0  0  0  0  0  0  0
    2.5365   -0.0780   -3.2116 C   0  0  0  0  0  0  0  0  0  0  0  0
    2.9545   -0.3116   -4.5977 N   0  0  0  0  0  0  0  0  0  0  0  0
    3.3149    0.6788   -2.6058 O   0  0  0  0  0  0  0  0  0  0  0  0
   -0.4478    0.0963    0.3637 C   0  0  0  0  0  0  0  0  0  0  0  0
   -0.2125    0.8399    1.3141 O   0  0  0  0  0  0  0  0  0  0  0  0
   -1.0668   -1.1437    0.5318 N   0  0  0  0  0  0  0  0  0  0  0  0
   -1.4172   -1.5018    1.9184 C   0  0  0  0  0  0  0  0  0  0  0  0
   -2.3765   -0.3891    2.3660 C   0  0  0  0  0  0  0  0  0  0  0  0
   -3.5637   -0.3928    1.4722 C   0  0  0  0  0  0  0  0  0  0  0  0
   -3.6281    0.3283    0.3174 C   0  0  0  0  0  0  0  0  0  0  0  0
   -4.7359    0.3047   -0.4817 C   0  0  0  0  0  0  0  0  0  0  0  0
   -5.8268   -0.4698   -0.1153 C   0  0  0  0  0  0  0  0  0  0  0  0
   -5.7767   -1.1878    1.0243 C   0  0  0  0  0  0  0  0  0  0  0  0
   -4.6594   -1.1516    1.8106 C   0  0  0  0  0  0  0  0  0  0  0  0
   -3.7630    0.2845    0.7415 C   0  0  0  0  0  0  0  0  0  0  0  0
   -4.2209   -1.2202    0.2052 C   0  0  2  0  0  0  0  0  0  0  0  0
   -5.3845   -1.4688    1.3654 C   0  0  0  0  0  0  0  0  0  0  0  0
   -6.3367   -0.4423    1.2324 N   0  0  0  0  0  0  0  0  0  0  0  0
   -7.4343   -0.3832    0.5100 N   0  0  0  0  0  0  0  0  0  0  0  0
   -8.0248    0.8311    0.7200 C   0  0  0  0  0  0  0  0  0  0  0  0
   -7.2635    1.4910    1.5760 N   0  0  0  0  0  0  0  0  0  0  0  0
   -6.2512    0.7077    1.8732 N   0  0  0  0  0  0  0  0  0  0  0  0
   -3.1201   -1.9505    1.0772 N   0  0  0  0  0  0  0  0  0  0  0  0
   -1.8208   -1.5401    0.7316 C   0  0  0  0  0  0  0  0  0  0  0  0
   -0.7541   -2.0691    1.3835 N   0  0  0  0  0  0  0  0  0  0  0  0
    0.5100   -1.7157    1.0968 C   0  0  0  0  0  0  0  0  0  0  0  0
    0.7757   -0.7930    0.1201 C   0  0  0  0  0  0  0  0  0  0  0  0
    2.0613   -0.4065   -0.2008 C   0  0  0  0  0  0  0  0  0  0  0  0
    2.1828    0.5377   -1.2116 C   0  0  0  0  0  0  0  0  0  0  0  0
    3.4460    0.9583   -1.5709 O   0  0  0  0  0  0  0  0  0  0  0  0
    4.5943    0.4679   -0.9547 C   0  0  0  0  0  0  0  0  0  0  0  0
    5.5134   -0.1775   -1.7672 C   0  0  0  0  0  0  0  0  0  0  0  0
    6.6537   -0.6652   -1.1593 C   0  0  0  0  0  0  0  0  0  0  0  0
    6.8692   -0.5149    0.2073 C   0  0  0  0  0  0  0  0  0  0  0  0
    8.0267   -1.0271    0.7361 F   0  0  0  0  0  0  0  0  0  0  0  0
    5.9417    0.1258    0.9723 C   0  0  0  0  0  0  0  0  0  0  0  0
    4.8077    0.6131    0.3793 C   0  0  0  0  0  0  0  0  0  0  0  0
    3.8587    1.2591    1.1126 F   0  0  0  0  0  0  0  0  0  0  0  0
    1.0970    1.0692   -1.8676 C   0  0  0  0  0  0  0  0  0  0  0  0
    1.2637    1.9168   -2.7708 O   0  0  0  0  0  0  0  0  0  0  0  0
   -0.1315    0.6730   -1.5320 N   0  0  0  0  0  0  0  0  0  0  0  0
   -1.2698    1.2403   -2.2307 C   0  0  0  0  0  0  0  0  0  0  0  0
   -0.2956   -0.2435   -0.5543 C   0  0  0  0  0  0  0  0  0  0  0  0
   -1.5311   -0.6383   -0.2208 N   0  0  0  0  0  0  0  0  0  0  0  0
  1  2  1  0
  2  3  1  0
  2  4  1  0
  4  5  1  0
  5  6  2  0
  5  7  1  0
  7  8  1  0
  8  9  1  6
  9 10  1  0
 10 11  1  0
 11 12  1  0
 11 13  2  0
  8 14  1  0
 14 15  2  0
 14 16  1  0
 16 17  1  0
 17 18  1  0
 18 19  1  0
 19 20  2  0
 20 21  1  0
 21 22  2  0
 22 23  1  0
 23 24  2  0
 26 25  1  1
 26 27  1  0
 27 28  1  0
 28 29  1  0
 29 30  2  0
 30 31  1  0
 31 32  2  0
 26 33  1  0
 33 34  1  0
 34 35  2  0
 35 36  1  0
 36 37  2  0
 37 38  1  0
 38 39  2  0
 39 40  1  0
 40 41  1  0
 41 42  2  0
 42 43  1  0
 43 44  2  0
 44 45  1  0
 44 46  1  0
 46 47  2  0
 47 48  1  0
 39 49  1  0
 49 50  2  0
 49 51  1  0
 51 52  1  0
 51 53  1  0
 53 54  2  0
 24 19  1  0
 32 28  1  0
 54 34  1  0
 53 37  1  0
 47 41  1  0
M  END

