
     RDKit          3D

 51 53  0  0  0  0  0  0  0  0999 V2000
   -5.4261   -1.5158   -1.9606 C   0  0  0  0  0  0  0  0  0  0  0  0
   -4.3151   -1.2933   -1.0053 C   0  0  0  0  0  0  0  0  0  0  0  0
   -4.2230   -2.4493   -0.0412 C   0  0  0  0  0  0  0  0  0  0  0  0
   -4.5854   -0.0303   -0.2049 C   0  0  0  0  0  0  0  0  0  0  0  0
   -3.4445    0.1980    0.7716 C   0  0  0  0  0  0  0  0  0  0  0  0
   -2.1839    0.3512    0.0050 C   0  0  0  0  0  0  0  0  0  0  0  0
   -2.2039    0.2885   -1.2387 O   0  0  0  0  0  0  0  0  0  0  0  0
   -0.9701    0.5678    0.7134 N   0  0  0  0  0  0  0  0  0  0  0  0
    0.3037    0.7304   -0.1822 C   0  0  1  0  0  0  0  0  0  0  0  0
    0.9339    1.9500    0.7335 C   0  0  0  0  0  0  0  0  0  0  0  0
   -0.0881    3.0238    0.6689 C   0  0  0  0  0  0  0  0  0  0  0  0
    0.1624    4.2321    1.3570 N   0  0  0  0  0  0  0  0  0  0  0  0
   -1.1681    2.9061    0.0290 O   0  0  0  0  0  0  0  0  0  0  0  0
    1.1148   -0.4725    0.4532 C   0  0  0  0  0  0  0  0  0  0  0  0
    0.4550   -1.4009    0.9620 O   0  0  0  0  0  0  0  0  0  0  0  0
    2.4858   -0.5125    0.4580 N   0  0  0  0  0  0  0  0  0  0  0  0
    3.1511   -1.6548    1.0556 C   0  0  0  0  0  0  0  0  0  0  0  0
    4.6328   -1.3855    0.9174 C   0  0  0  0  0  0  0  0  0  0  0  0
    4.9516   -1.2371   -0.5071 C   0  0  0  0  0  0  0  0  0  0  0  0
    6.3128   -0.9675   -0.9343 N   0  0  0  0  0  0  0  0  0  0  0  0
    4.1041   -1.3285   -1.4564 O   0  0  0  0  0  0  0  0  0  0  0  0
   -4.6851    1.1497   -0.4525 C   0  0  0  0  0  0  0  0  0  0  0  0
   -4.8460   -0.1124   -1.4876 C   0  0  2  0  0  0  0  0  0  0  0  0
   -3.7807   -1.0518   -0.6654 C   0  0  0  0  0  0  0  0  0  0  0  0
   -4.4607   -1.1208    0.6423 N   0  0  0  0  0  0  0  0  0  0  0  0
   -5.3487   -2.0283    1.0361 N   0  0  0  0  0  0  0  0  0  0  0  0
   -5.7711   -1.8046    2.2696 C   0  0  0  0  0  0  0  0  0  0  0  0
   -5.1115   -0.6945    2.6727 N   0  0  0  0  0  0  0  0  0  0  0  0
   -4.3347   -0.3115    1.6726 N   0  0  0  0  0  0  0  0  0  0  0  0
   -3.8533    0.4586   -2.5336 N   0  0  0  0  0  0  0  0  0  0  0  0
   -2.5431    0.7093   -2.2471 C   0  0  0  0  0  0  0  0  0  0  0  0
   -1.7306    1.2017   -3.1806 N   0  0  0  0  0  0  0  0  0  0  0  0
   -0.4331    1.4720   -2.9762 C   0  0  0  0  0  0  0  0  0  0  0  0
    0.0734    1.2193   -1.7203 C   0  0  0  0  0  0  0  0  0  0  0  0
    1.4049    1.4639   -1.4041 C   0  0  0  0  0  0  0  0  0  0  0  0
    1.9123    1.2101   -0.1449 C   0  0  0  0  0  0  0  0  0  0  0  0
    3.2431    1.4816    0.0820 O   0  0  0  0  0  0  0  0  0  0  0  0
    4.1852    0.5577    0.4679 C   0  0  0  0  0  0  0  0  0  0  0  0
    4.8773    0.7022    1.6532 C   0  0  0  0  0  0  0  0  0  0  0  0
    5.8272   -0.2235    2.0487 C   0  0  0  0  0  0  0  0  0  0  0  0
    6.1187   -1.3267    1.2729 C   0  0  0  0  0  0  0  0  0  0  0  0
    7.0564   -2.2344    1.6701 F   0  0  0  0  0  0  0  0  0  0  0  0
    5.4158   -1.4534    0.0911 C   0  0  0  0  0  0  0  0  0  0  0  0
    4.4716   -0.5432   -0.3129 C   0  0  0  0  0  0  0  0  0  0  0  0
    3.7731   -0.6531   -1.4700 F   0  0  0  0  0  0  0  0  0  0  0  0
    1.0683    0.7049    0.8040 C   0  0  0  0  0  0  0  0  0  0  0  0
    1.5169    0.4672    1.9611 O   0  0  0  0  0  0  0  0  0  0  0  0
   -0.2280    0.4708    0.4832 N   0  0  0  0  0  0  0  0  0  0  0  0
   -1.0596   -0.0644    1.5381 C   0  0  0  0  0  0  0  0  0  0  0  0
   -0.7234    0.7169   -0.7406 C   0  0  0  0  0  0  0  0  0  0  0  0
   -2.0346    0.4690   -1.0298 N   0  0  0  0  0  0  0  0  0  0  0  0
  1  2  1  0
  2  3  1  0
  2  4  1  0
  4  5  1  0
  5  6  1  0
  6  7  2  0
  6  8  1  0
  8  9  1  0
  9 10  1  1
 10 11  1  0
 11 12  1  0
 11 13  2  0
  9 14  1  0
 14 15  2  0
 14 16  1  0
 16 17  1  0
 17 18  1  0
 18 19  1  0
 19 20  1  0
 19 21  2  0
 23 22  1  1
 23 24  1  0
 24 25  1  0
 25 26  1  0
 26 27  2  0
 27 28  1  0
 28 29  2  0
 23 30  1  0
 30 31  1  0
 31 32  2  0
 32 33  1  0
 33 34  2  0
 34 35  1  0
 35 36  2  0
 36 37  1  0
 37 38  1  0
 38 39  2  0
 39 40  1  0
 40 41  2  0
 41 42  1  0
 41 43  1  0
 43 44  2  0
 44 45  1  0
 36 46  1  0
 46 47  2  0
 46 48  1  0
 48 49  1  0
 48 50  1  0
 50 51  2  0
 29 25  1  0
 51 31  1  0
 50 34  1  0
 44 38  1  0
M  END

