
     RDKit          3D

 16 15  0  0  0  0  0  0  0  0999 V2000
   -4.5802    1.5708   -1.7271 C   0  0  0  0  0  0  0  0  0  0  0  0
   -3.4484    0.7392   -1.5993 N   0  0  0  0  0  0  0  0  0  0  0  0
   -2.5619    0.6568   -0.5379 C   0  0  0  0  0  0  0  0  0  0  0  0
   -2.7144    1.3677    0.4634 O   0  0  0  0  0  0  0  0  0  0  0  0
   -1.3793   -0.3528   -0.6681 C   0  0  1  0  0  0  0  0  0  0  0  0
   -0.3902    0.4260    0.2283 N   0  0  0  0  0  0  0  0  0  0  0  0
    0.9717    0.0376    0.1433 C   0  0  0  0  0  0  0  0  0  0  0  0
    1.3156   -0.8902   -0.6085 O   0  0  0  0  0  0  0  0  0  0  0  0
    1.9727    0.7704    0.9777 C   0  0  0  0  0  0  0  0  0  0  0  0
    3.3174    0.0986    0.7295 C   0  0  0  0  0  0  0  0  0  0  0  0
    3.6586    0.1745   -0.7478 C   0  0  0  0  0  0  0  0  0  0  0  0
    4.9806   -0.4775   -1.0670 C   0  0  0  0  0  0  0  0  0  0  0  0
    3.7037    1.6335   -1.1969 C   0  0  0  0  0  0  0  0  0  0  0  0
   -1.9356   -1.3172    0.6236 C   0  0  1  0  0  0  0  0  0  0  0  0
   -2.3329   -2.5597   -0.3983 C   0  0  0  0  0  0  0  0  0  0  0  0
   -0.5775   -1.8776    0.8908 O   0  0  0  0  0  0  0  0  0  0  0  0
  1  2  1  0
  2  3  1  0
  3  4  2  0
  3  5  1  0
  5  6  1  1
  6  7  1  0
  7  8  2  0
  7  9  1  0
  9 10  1  0
 10 11  1  0
 11 12  1  0
 11 13  1  0
  5 14  1  0
 14 15  1  6
 14 16  1  0
M  END

