
     RDKit          3D

 22 22  0  0  0  0  0  0  0  0999 V2000
    3.7112    1.1620   -1.9517 C   0  0  0  0  0  0  0  0  0  0  0  0
    4.5203    0.2348   -1.1857 C   0  0  0  0  0  0  0  0  0  0  0  0
    5.9900    0.2987   -1.4338 C   0  0  0  0  0  0  0  0  0  0  0  0
    4.1588   -0.2784    0.1044 C   0  0  0  0  0  0  0  0  0  0  0  0
    2.9217   -1.0690    0.3053 C   0  0  0  0  0  0  0  0  0  0  0  0
    1.6892   -0.3008    0.0185 C   0  0  0  0  0  0  0  0  0  0  0  0
    1.7918    0.9313   -0.1723 O   0  0  0  0  0  0  0  0  0  0  0  0
    0.3965   -0.9574   -0.0440 N   0  0  0  0  0  0  0  0  0  0  0  0
   -0.7407    0.0708   -0.3617 C   0  0  1  0  0  0  0  0  0  0  0  0
   -1.9588   -0.9551    0.1214 C   0  0  0  0  0  0  0  0  0  0  0  0
   -1.8450   -2.1255   -0.7577 C   0  0  0  0  0  0  0  0  0  0  0  0
   -2.3991   -2.4402   -1.9686 C   0  0  0  0  0  0  0  0  0  0  0  0
   -1.9203   -3.6564   -2.3105 N   0  0  0  0  0  0  0  0  0  0  0  0
   -1.0886   -4.1011   -1.3480 C   0  0  0  0  0  0  0  0  0  0  0  0
   -1.0698   -3.1527   -0.4279 N   0  0  0  0  0  0  0  0  0  0  0  0
   -0.7322    0.8598    1.0268 C   0  0  0  0  0  0  0  0  0  0  0  0
    0.0346    0.6393    1.9188 O   0  0  0  0  0  0  0  0  0  0  0  0
   -1.7497    1.8828    1.1160 N   0  0  0  0  0  0  0  0  0  0  0  0
   -1.7702    2.6169    2.3206 C   0  0  0  0  0  0  0  0  0  0  0  0
   -2.9872    3.7141    2.2788 C   0  0  1  0  0  0  0  0  0  0  0  0
   -2.8708    3.9883    0.6590 C   0  0  0  0  0  0  0  0  0  0  0  0
   -4.0818    2.6378    2.0925 O   0  0  0  0  0  0  0  0  0  0  0  0
  1  2  1  0
  2  3  1  0
  2  4  1  0
  4  5  1  0
  5  6  1  0
  6  7  2  0
  6  8  1  0
  8  9  1  0
  9 10  1  1
 10 11  1  0
 11 12  2  0
 12 13  1  0
 13 14  1  0
 14 15  2  0
  9 16  1  0
 16 17  2  0
 16 18  1  0
 18 19  1  0
 19 20  1  0
 20 21  1  6
 20 22  1  0
 15 11  1  0
M  END

