
     RDKit          3D

 54 56  0  0  0  0  0  0  0  0999 V2000
    5.4427   -0.8694    1.0811 C   0  0  0  0  0  0  0  0  0  0  0  0
    4.1479   -1.0279    0.2245 C   0  0  0  0  0  0  0  0  0  0  0  0
    3.0675   -1.1692    1.2650 C   0  0  0  0  0  0  0  0  0  0  0  0
    4.1024    0.0691   -0.6820 C   0  0  0  0  0  0  0  0  0  0  0  0
    3.2459    0.4719   -1.6804 C   0  0  0  0  0  0  0  0  0  0  0  0
    1.9212    0.7921   -1.7326 N   0  0  0  0  0  0  0  0  0  0  0  0
    0.8594   -0.0477   -1.4615 C   0  0  0  0  0  0  0  0  0  0  0  0
    1.0563   -1.2056   -1.1453 O   0  0  0  0  0  0  0  0  0  0  0  0
   -0.5588    0.6062   -1.5954 C   0  0  2  0  0  0  0  0  0  0  0  0
   -0.5959    1.2874   -0.0973 C   0  0  0  0  0  0  0  0  0  0  0  0
    0.5926    2.1828   -0.1732 C   0  0  0  0  0  0  0  0  0  0  0  0
    0.5534    3.2703   -1.1726 C   0  0  0  0  0  0  0  0  0  0  0  0
   -0.3805    4.2745   -1.0445 N   0  0  0  0  0  0  0  0  0  0  0  0
   -1.7638    4.1729   -1.0313 C   0  0  0  0  0  0  0  0  0  0  0  0
   -2.5645    5.3720   -0.8840 N   0  0  0  0  0  0  0  0  0  0  0  0
   -2.4414    3.0976   -1.1389 N   0  0  0  0  0  4  0  0  0  0  0  0
   -1.4069   -0.6263   -1.2106 N   0  0  0  0  0  0  0  0  0  0  0  0
   -1.3294   -1.2331    0.0130 C   0  0  0  0  0  0  0  0  0  0  0  0
   -0.5478   -0.7990    0.8908 O   0  0  0  0  0  0  0  0  0  0  0  0
   -2.1673   -2.4143    0.3249 C   0  0  0  0  0  0  0  0  0  0  0  0
   -1.9247   -2.8990    1.7399 C   0  0  0  0  0  0  0  0  0  0  0  0
   -2.7489   -4.0843    2.0962 C   0  0  0  0  0  0  0  0  0  0  0  0
   -4.2240   -3.8908    2.0217 C   0  0  0  0  0  0  0  0  0  0  0  0
   -2.3356   -5.3303    1.3893 C   0  0  0  0  0  0  0  0  0  0  0  0
    6.3485    2.0134   -0.0318 C   0  0  0  0  0  0  0  0  0  0  0  0
    4.7938    2.5974   -0.0376 C   0  0  2  0  0  0  0  0  0  0  0  0
    4.4734    2.3811    1.5674 C   0  0  0  0  0  0  0  0  0  0  0  0
    4.5865    1.0491    1.9353 N   0  0  0  0  0  0  0  0  0  0  0  0
    3.6508    0.1204    1.9318 N   0  0  0  0  0  0  0  0  0  0  0  0
    4.1835   -1.0409    2.3637 C   0  0  0  0  0  0  0  0  0  0  0  0
    5.4606   -0.8139    2.6331 N   0  0  0  0  0  0  0  0  0  0  0  0
    5.6829    0.4550    2.3672 N   0  0  0  0  0  0  0  0  0  0  0  0
    4.1672    1.2129   -0.4563 N   0  0  0  0  0  0  0  0  0  0  0  0
    2.7487    1.2207   -0.5965 C   0  0  0  0  0  0  0  0  0  0  0  0
    2.0713    2.3482   -0.3747 N   0  0  0  0  0  0  0  0  0  0  0  0
    0.7119    2.4520   -0.4843 C   0  0  0  0  0  0  0  0  0  0  0  0
    0.0526    1.3022   -0.8459 C   0  0  0  0  0  0  0  0  0  0  0  0
   -1.3166    1.3597   -0.9683 C   0  0  0  0  0  0  0  0  0  0  0  0
   -2.0461    0.2174   -1.3350 C   0  0  0  0  0  0  0  0  0  0  0  0
   -3.4007    0.3538   -1.4357 O   0  0  0  0  0  0  0  0  0  0  0  0
   -4.3379   -0.3482   -0.7007 C   0  0  0  0  0  0  0  0  0  0  0  0
   -5.2389   -1.1281   -1.4211 C   0  0  0  0  0  0  0  0  0  0  0  0
   -6.1825   -1.8393   -0.7411 C   0  0  0  0  0  0  0  0  0  0  0  0
   -6.2405   -1.7852    0.6290 C   0  0  0  0  0  0  0  0  0  0  0  0
   -7.2005   -2.5127    1.2675 F   0  0  0  0  0  0  0  0  0  0  0  0
   -5.3445   -1.0105    1.3343 C   0  0  0  0  0  0  0  0  0  0  0  0
   -4.3959   -0.2950    0.6570 C   0  0  0  0  0  0  0  0  0  0  0  0
   -3.5130    0.4671    1.3343 F   0  0  0  0  0  0  0  0  0  0  0  0
   -1.3215   -0.9228   -1.5553 C   0  0  0  0  0  0  0  0  0  0  0  0
   -1.9542   -1.9574   -1.8846 O   0  0  0  0  0  0  0  0  0  0  0  0
    0.0373   -0.9776   -1.4332 N   0  0  0  0  0  0  0  0  0  0  0  0
    0.7226   -2.2283   -1.6858 C   0  0  0  0  0  0  0  0  0  0  0  0
    0.7304    0.1237   -1.0807 C   0  0  0  0  0  0  0  0  0  0  0  0
    2.0707    0.1012   -0.9521 N   0  0  0  0  0  0  0  0  0  0  0  0
  1  2  1  0
  2  3  1  0
  2  4  1  0
  4  5  1  0
  5  6  1  0
  6  7  1  0
  7  8  2  0
  7  9  1  0
  9 10  1  1
 10 11  1  0
 11 12  1  0
 12 13  1  0
 13 14  1  0
 14 15  1  0
 14 16  2  0
  9 17  1  0
 17 18  1  0
 18 19  2  0
 18 20  1  0
 20 21  1  0
 21 22  1  0
 22 23  1  0
 22 24  1  0
 26 25  1  1
 26 27  1  0
 27 28  1  0
 28 29  1  0
 29 30  2  0
 30 31  1  0
 31 32  2  0
 26 33  1  0
 33 34  1  0
 34 35  2  0
 35 36  1  0
 36 37  2  0
 37 38  1  0
 38 39  2  0
 39 40  1  0
 40 41  1  0
 41 42  2  0
 42 43  1  0
 43 44  2  0
 44 45  1  0
 44 46  1  0
 46 47  2  0
 47 48  1  0
 39 49  1  0
 49 50  2  0
 49 51  1  0
 51 52  1  0
 51 53  1  0
 53 54  2  0
 32 28  1  0
 54 34  1  0
 53 37  1  0
 47 41  1  0
M  CHG  1  16   1
M  END

