
     RDKit          3D

 19 18  0  0  0  0  0  0  0  0999 V2000
   -4.3897   -1.0622    1.1261 O   0  0  0  0  0  1  0  0  0  0  0  0
   -4.2569    0.3123    1.1200 C   0  0  0  0  0  0  0  0  0  0  0  0
   -4.2155    1.0017    2.1928 O   0  0  0  0  0  0  0  0  0  0  0  0
   -4.1526    1.0897   -0.1453 C   0  0  0  0  0  0  0  0  0  0  0  0
   -2.6986    1.2879   -0.5019 C   0  0  0  0  0  0  0  0  0  0  0  0
   -2.1318   -0.0417   -0.6663 N   0  0  0  0  0  0  0  0  0  0  0  0
   -0.7311   -0.1246   -1.0173 C   0  0  0  0  0  0  0  0  0  0  0  0
   -0.0265    0.8434   -1.1748 O   0  0  0  0  0  0  0  0  0  0  0  0
   -0.1938   -1.6186   -1.1805 C   0  0  2  0  0  0  0  0  0  0  0  0
   -0.0174   -1.9021    0.4297 C   0  0  0  0  0  0  0  0  0  0  0  0
    0.8911   -2.9729    0.3830 O   0  0  0  0  0  0  0  0  0  0  0  0
    1.2839   -1.2903   -1.5039 N   0  0  0  0  0  0  0  0  0  0  0  0
    2.0851   -0.6698   -0.5318 C   0  0  0  0  0  0  0  0  0  0  0  0
    1.5033   -0.4234    0.5490 O   0  0  0  0  0  0  0  0  0  0  0  0
    3.5200   -0.3179   -0.7292 C   0  0  0  0  0  0  0  0  0  0  0  0
    4.0753    0.2586    0.5417 C   0  0  0  0  0  0  0  0  0  0  0  0
    3.3308    1.4900    0.8721 C   0  0  0  0  0  0  0  0  0  0  0  0
    3.6983    2.1213    2.0763 O   0  0  0  0  0  1  0  0  0  0  0  0
    2.4262    2.0186    0.2073 O   0  0  0  0  0  0  0  0  0  0  0  0
  1  2  1  0
  2  3  2  0
  2  4  1  0
  4  5  1  0
  5  6  1  0
  6  7  1  0
  7  8  2  0
  7  9  1  0
  9 10  1  1
 10 11  1  0
  9 12  1  0
 12 13  1  0
 13 14  2  0
 13 15  1  0
 15 16  1  0
 16 17  1  0
 17 18  1  0
 17 19  2  0
M  RAD  2   1   2  18   2
M  END

