
     RDKit          3D

 45 47  0  0  0  0  0  0  0  0999 V2000
    4.9097   -0.3710   -0.6950 C   0  0  0  0  0  0  0  0  0  0  0  0
    4.4266    1.0365   -0.4354 C   0  0  0  0  0  0  0  0  0  0  0  0
    2.9625    1.1211   -0.3393 C   0  0  2  0  0  0  0  0  0  0  0  0
    2.3626    2.4196   -0.1067 C   0  0  0  0  0  0  0  0  0  0  0  0
    2.2866   -0.0464    0.2411 C   0  0  0  0  0  0  0  0  0  0  0  0
    0.8924    0.1845    0.4283 N   0  0  0  0  0  0  0  0  0  0  0  0
   -0.0606   -0.7621    0.7727 C   0  0  0  0  0  0  0  0  0  0  0  0
    0.1989   -1.9634    0.9085 O   0  0  0  0  0  0  0  0  0  0  0  0
   -1.5405   -0.2080    0.9680 C   0  0  2  0  0  0  0  0  0  0  0  0
   -2.2380   -1.7068    1.1143 C   0  0  0  0  0  0  0  0  0  0  0  0
   -1.8853   -2.6179   -0.4203 S   0  0  0  0  0  0  0  0  0  0  0  0
   -1.9660   -0.1620   -0.5533 N   0  0  0  0  0  0  0  0  0  0  0  0
   -3.0894    0.7572   -0.6373 C   0  0  0  0  0  0  0  0  0  0  0  0
   -3.7122    0.9675   -1.9911 C   0  0  0  0  0  0  0  0  0  0  0  0
   -3.5472    1.3513    0.3426 O   0  0  0  0  0  0  0  0  0  0  0  0
    3.5177    2.6859   -0.7708 C   0  0  0  0  0  0  0  0  0  0  0  0
    4.2701    1.5752    0.2022 C   0  0  2  0  0  0  0  0  0  0  0  0
    5.5229    1.4091   -0.8873 C   0  0  0  0  0  0  0  0  0  0  0  0
    6.3274    0.4343   -0.1895 N   0  0  0  0  0  0  0  0  0  0  0  0
    6.2446   -0.8644   -0.2902 N   0  0  0  0  0  0  0  0  0  0  0  0
    7.1772   -1.3731    0.5317 C   0  0  0  0  0  0  0  0  0  0  0  0
    7.8396   -0.3697    1.1436 N   0  0  0  0  0  0  0  0  0  0  0  0
    7.2722    0.7249    0.6599 N   0  0  0  0  0  0  0  0  0  0  0  0
    3.5052    0.3325   -0.3929 N   0  0  0  0  0  0  0  0  0  0  0  0
    2.1146    0.3339   -0.2790 C   0  0  0  0  0  0  0  0  0  0  0  0
    1.3976    1.3048    0.2930 N   0  0  0  0  0  0  0  0  0  0  0  0
    0.0550    1.2760    0.3870 C   0  0  0  0  0  0  0  0  0  0  0  0
   -0.5775    0.1561   -0.1540 C   0  0  0  0  0  0  0  0  0  0  0  0
   -1.9614    0.0234   -0.1115 C   0  0  0  0  0  0  0  0  0  0  0  0
   -2.5784   -1.0738   -0.6417 C   0  0  0  0  0  0  0  0  0  0  0  0
   -3.9668   -1.2565   -0.6253 O   0  0  0  0  0  0  0  0  0  0  0  0
   -4.7264   -0.2720   -0.0428 C   0  0  0  0  0  0  0  0  0  0  0  0
   -5.6689    0.3684   -0.8323 C   0  0  0  0  0  0  0  0  0  0  0  0
   -6.4221    1.3518   -0.2359 C   0  0  0  0  0  0  0  0  0  0  0  0
   -6.2698    1.7063    1.0839 C   0  0  0  0  0  0  0  0  0  0  0  0
   -7.0539    2.6817    1.5793 F   0  0  0  0  0  0  0  0  0  0  0  0
   -5.3192    1.0371    1.8197 C   0  0  0  0  0  0  0  0  0  0  0  0
   -4.5434    0.0494    1.2709 C   0  0  0  0  0  0  0  0  0  0  0  0
   -3.5925   -0.6280    1.9861 F   0  0  0  0  0  0  0  0  0  0  0  0
   -1.7782   -2.0395   -1.2176 C   0  0  0  0  0  0  0  0  0  0  0  0
   -2.3350   -3.0564   -1.7102 O   0  0  0  0  0  0  0  0  0  0  0  0
   -0.4536   -1.9561   -1.2813 N   0  0  0  0  0  0  0  0  0  0  0  0
    0.4012   -2.9673   -1.8857 C   0  0  0  0  0  0  0  0  0  0  0  0
    0.1315   -0.8652   -0.7519 C   0  0  0  0  0  0  0  0  0  0  0  0
    1.4703   -0.7289   -0.7887 N   0  0  0  0  0  0  0  0  0  0  0  0
  1  2  1  0
  2  3  1  0
  3  4  1  1
  3  5  1  0
  5  6  1  0
  6  7  1  0
  7  8  2  0
  7  9  1  0
  9 10  1  1
 10 11  1  0
  9 12  1  0
 12 13  1  0
 13 14  1  0
 13 15  2  0
 17 16  1  6
 17 18  1  0
 18 19  1  0
 19 20  1  0
 20 21  2  0
 21 22  1  0
 22 23  2  0
 17 24  1  0
 24 25  1  0
 25 26  2  0
 26 27  1  0
 27 28  2  0
 28 29  1  0
 29 30  2  0
 30 31  1  0
 31 32  1  0
 32 33  2  0
 33 34  1  0
 34 35  2  0
 35 36  1  0
 35 37  1  0
 37 38  2  0
 38 39  1  0
 30 40  1  0
 40 41  2  0
 40 42  1  0
 42 43  1  0
 42 44  1  0
 44 45  2  0
 23 19  1  0
 45 25  1  0
 44 28  1  0
 38 32  1  0
M  END

