
     RDKit          3D

 46 48  0  0  0  0  0  0  0  0999 V2000
    3.1629   -0.2628   -3.2099 C   0  0  0  0  0  0  0  0  0  0  0  0
    4.3065    0.3763   -2.1604 C   0  0  2  0  0  0  0  0  0  0  0  0
    5.2706   -0.9847   -2.3094 C   0  0  0  0  0  0  0  0  0  0  0  0
    6.3926   -0.6373   -1.4319 N   0  0  0  0  0  0  0  0  0  0  0  0
    6.5254   -0.8753   -0.1620 N   0  0  0  0  0  0  0  0  0  0  0  0
    7.7035   -0.3867    0.2421 C   0  0  0  0  0  0  0  0  0  0  0  0
    8.3011    0.1632   -0.8152 N   0  0  0  0  0  0  0  0  0  0  0  0
    7.4830   -0.0004   -1.8297 N   0  0  0  0  0  0  0  0  0  0  0  0
    3.5625   -0.2003   -0.8922 N   0  0  0  0  0  0  0  0  0  0  0  0
    2.2503    0.2631   -0.7236 C   0  0  0  0  0  0  0  0  0  0  0  0
    1.7146    1.1162   -1.5825 N   0  0  0  0  0  0  0  0  0  0  0  0
    0.4721    1.5972   -1.4819 C   0  0  0  0  0  0  0  0  0  0  0  0
   -0.2641    1.1385   -0.3832 C   0  0  0  0  0  0  0  0  0  0  0  0
   -1.5615    1.6046   -0.2275 C   0  0  0  0  0  0  0  0  0  0  0  0
   -2.3033    1.1638    0.8497 C   0  0  0  0  0  0  0  0  0  0  0  0
   -3.6078    1.6321    1.0066 O   0  0  0  0  0  0  0  0  0  0  0  0
   -4.7035    0.7885    1.0211 C   0  0  0  0  0  0  0  0  0  0  0  0
   -5.5507    0.7007    2.0972 C   0  0  0  0  0  0  0  0  0  0  0  0
   -6.6215   -0.1485    2.0645 C   0  0  0  0  0  0  0  0  0  0  0  0
   -6.8555   -0.9216    0.9493 C   0  0  0  0  0  0  0  0  0  0  0  0
   -7.9159   -1.7576    0.9264 F   0  0  0  0  0  0  0  0  0  0  0  0
   -6.0071   -0.8347   -0.1301 C   0  0  0  0  0  0  0  0  0  0  0  0
   -4.9295    0.0203   -0.0965 C   0  0  0  0  0  0  0  0  0  0  0  0
   -4.0940    0.1066   -1.1583 F   0  0  0  0  0  0  0  0  0  0  0  0
   -1.7226    0.2769    1.7278 C   0  0  0  0  0  0  0  0  0  0  0  0
   -2.4347   -0.1083    2.7089 O   0  0  0  0  0  0  0  0  0  0  0  0
   -0.4724   -0.1788    1.5869 N   0  0  0  0  0  0  0  0  0  0  0  0
    0.1032   -1.1145    2.5363 C   0  0  0  0  0  0  0  0  0  0  0  0
    0.2664    0.2499    0.5286 C   0  0  0  0  0  0  0  0  0  0  0  0
    1.5293   -0.1838    0.3490 N   0  0  0  0  0  0  0  0  0  0  0  0
   -0.2863   -1.8771   -0.3205 C   0  0  0  0  0  0  0  0  0  0  0  0
   -0.1434   -1.5327    1.2795 C   0  0  2  0  0  0  0  0  0  0  0  0
   -1.6469   -1.2304    1.5091 N   0  0  0  0  0  0  0  0  0  0  0  0
   -2.4131   -0.6536    0.5140 C   0  0  0  0  0  0  0  0  0  0  0  0
   -1.9352   -0.3546   -0.6085 O   0  0  0  0  0  0  0  0  0  0  0  0
   -3.8667   -0.3813    0.8025 C   0  0  0  0  0  0  0  0  0  0  0  0
   -4.5249    0.2518   -0.4188 C   0  0  0  0  0  0  0  0  0  0  0  0
   -4.4229   -0.6218   -1.5063 O   0  0  0  0  0  0  0  0  0  0  0  0
    0.3279   -0.0381    1.0800 C   0  0  0  0  0  0  0  0  0  0  0  0
   -0.4723    0.8893    1.1574 O   0  0  0  0  0  0  0  0  0  0  0  0
    1.6836    0.2205    0.8104 N   0  0  0  0  0  0  0  0  0  0  0  0
    2.0875    1.6020    0.6311 C   0  0  0  0  0  0  0  0  0  0  0  0
    3.5771    1.6705    0.3519 C   0  0  0  0  0  0  0  0  0  0  0  0
    3.8590    0.9003   -0.8815 C   0  0  0  0  0  0  0  0  0  0  0  0
    5.1742    0.8387   -1.3146 O   0  0  0  0  0  1  0  0  0  0  0  0
    3.0025    0.3163   -1.5395 O   0  0  0  0  0  0  0  0  0  0  0  0
  2  1  1  6
  2  3  1  0
  3  4  1  0
  4  5  1  0
  5  6  2  0
  6  7  1  0
  7  8  2  0
  2  9  1  0
  9 10  1  0
 10 11  2  0
 11 12  1  0
 12 13  2  0
 13 14  1  0
 14 15  2  0
 15 16  1  0
 16 17  1  0
 17 18  2  0
 18 19  1  0
 19 20  2  0
 20 21  1  0
 20 22  1  0
 22 23  2  0
 23 24  1  0
 15 25  1  0
 25 26  2  0
 25 27  1  0
 27 28  1  0
 27 29  1  0
 29 30  2  0
 32 31  1  6
 32 33  1  0
 33 34  1  0
 34 35  2  0
 34 36  1  0
 36 37  1  0
 37 38  1  0
 32 39  1  0
 39 40  2  0
 39 41  1  0
 41 42  1  0
 42 43  1  0
 43 44  1  0
 44 45  1  0
 44 46  2  0
  8  4  1  0
 30 10  1  0
 29 13  1  0
 23 17  1  0
M  RAD  1  45   2
M  END

