
     RDKit          3D

 52 55  0  0  0  0  0  0  0  0999 V2000
   -4.0156    3.5005   -0.3483 C   0  0  0  0  0  0  0  0  0  0  0  0
   -4.4503    2.2116   -1.0563 C   0  0  0  0  0  0  0  0  0  0  0  0
   -5.4360    1.4376   -0.0219 C   0  0  1  0  0  0  0  0  0  0  0  0
   -5.7329    0.1779   -0.9712 C   0  0  0  0  0  0  0  0  0  0  0  0
   -4.2541    0.7773    0.8377 C   0  0  0  0  0  0  0  0  0  0  0  0
   -3.4165   -0.0440   -0.0636 C   0  0  0  0  0  0  0  0  0  0  0  0
   -3.6579   -0.1034   -1.2806 O   0  0  0  0  0  0  0  0  0  0  0  0
   -2.2984   -0.7956    0.4454 N   0  0  0  0  0  0  0  0  0  0  0  0
   -1.5630   -1.5881   -0.6826 C   0  0  1  0  0  0  0  0  0  0  0  0
   -1.3629   -0.3238   -1.7217 C   0  0  0  0  0  0  0  0  0  0  0  0
   -0.6409    0.6396   -1.1326 O   0  0  0  0  0  0  0  0  0  0  0  0
   -0.0827   -1.4833   -0.0571 C   0  0  0  0  0  0  0  0  0  0  0  0
    0.1225   -0.9238    0.9930 O   0  0  0  0  0  0  0  0  0  0  0  0
    0.9245   -2.1087   -0.8658 N   0  0  0  0  0  0  0  0  0  0  0  0
    2.2859   -2.0139   -0.3093 C   0  0  0  0  0  0  0  0  0  0  0  0
    2.5616   -0.5333   -0.2050 C   0  0  0  0  0  0  0  0  0  0  0  0
    3.8732   -0.1689    0.3135 C   0  0  0  0  0  0  0  0  0  0  0  0
    4.1683    0.0010    1.6453 C   0  0  0  0  0  0  0  0  0  0  0  0
    5.4612    0.3637    2.0375 C   0  0  0  0  0  0  0  0  0  0  0  0
    6.4527    0.5560    1.1109 C   0  0  0  0  0  0  0  0  0  0  0  0
    6.1706    0.3902   -0.2152 C   0  0  0  0  0  0  0  0  0  0  0  0
    4.8907    0.0314   -0.5942 C   0  0  0  0  0  0  0  0  0  0  0  0
   -4.0301   -2.0372   -2.1780 C   0  0  0  0  0  0  0  0  0  0  0  0
   -4.8337   -1.5574   -0.8078 C   0  0  2  0  0  0  0  0  0  0  0  0
   -4.2342   -0.0167   -0.8648 C   0  0  0  0  0  0  0  0  0  0  0  0
   -4.8880    0.5339    0.3315 N   0  0  0  0  0  0  0  0  0  0  0  0
   -6.0785    1.1351    0.3801 N   0  0  0  0  0  0  0  0  0  0  0  0
   -6.3376    1.5048    1.6575 C   0  0  0  0  0  0  0  0  0  0  0  0
   -5.2794    1.1141    2.3762 N   0  0  0  0  0  0  0  0  0  0  0  0
   -4.4005    0.5237    1.5623 N   0  0  0  0  0  0  0  0  0  0  0  0
   -3.7349   -2.0983    0.1759 N   0  0  0  0  0  0  0  0  0  0  0  0
   -2.4255   -1.6360    0.0752 C   0  0  0  0  0  0  0  0  0  0  0  0
   -1.5594   -2.1394    0.9391 N   0  0  0  0  0  0  0  0  0  0  0  0
   -0.2568   -1.8162    0.9961 C   0  0  0  0  0  0  0  0  0  0  0  0
    0.2175   -0.8770    0.0721 C   0  0  0  0  0  0  0  0  0  0  0  0
    1.5212   -0.4784    0.0428 C   0  0  0  0  0  0  0  0  0  0  0  0
    1.9417    0.4478   -0.8841 C   0  0  0  0  0  0  0  0  0  0  0  0
    3.2676    0.8387   -0.8973 O   0  0  0  0  0  0  0  0  0  0  0  0
    4.1597    0.2988    0.0174 C   0  0  0  0  0  0  0  0  0  0  0  0
    3.7181   -0.6285    0.9386 C   0  0  0  0  0  0  0  0  0  0  0  0
    4.5658   -1.1837    1.8561 C   0  0  0  0  0  0  0  0  0  0  0  0
    5.8873   -0.7958    1.8449 C   0  0  0  0  0  0  0  0  0  0  0  0
    6.7496   -1.3464    2.7619 F   0  0  0  0  0  0  0  0  0  0  0  0
    6.3465    0.1134    0.9503 C   0  0  0  0  0  0  0  0  0  0  0  0
    5.4809    0.6623    0.0341 C   0  0  0  0  0  0  0  0  0  0  0  0
    5.8894    1.5780   -0.8847 F   0  0  0  0  0  0  0  0  0  0  0  0
    1.0371    0.9704   -1.7827 C   0  0  0  0  0  0  0  0  0  0  0  0
    1.4148    1.8301   -2.6471 O   0  0  0  0  0  0  0  0  0  0  0  0
   -0.2440    0.5672   -1.7408 N   0  0  0  0  0  0  0  0  0  0  0  0
   -1.2404    1.0964   -2.6773 C   0  0  0  0  0  0  0  0  0  0  0  0
   -0.6767   -0.3451   -0.8339 C   0  0  0  0  0  0  0  0  0  0  0  0
   -1.9773   -0.7350   -0.8136 N   0  0  0  0  0  0  0  0  0  0  0  0
  1  2  1  0
  2  3  1  0
  3  4  1  1
  3  5  1  0
  5  6  1  0
  6  7  2  0
  6  8  1  0
  8  9  1  0
  9 10  1  6
 10 11  1  0
  9 12  1  0
 12 13  2  0
 12 14  1  0
 14 15  1  0
 15 16  1  0
 16 17  1  0
 17 18  2  0
 18 19  1  0
 19 20  2  0
 20 21  1  0
 21 22  2  0
 24 23  1  6
 24 25  1  0
 25 26  1  0
 26 27  1  0
 27 28  2  0
 28 29  1  0
 29 30  2  0
 24 31  1  0
 31 32  1  0
 32 33  2  0
 33 34  1  0
 34 35  2  0
 35 36  1  0
 36 37  2  0
 37 38  1  0
 38 39  1  0
 39 40  2  0
 40 41  1  0
 41 42  2  0
 42 43  1  0
 42 44  1  0
 44 45  2  0
 45 46  1  0
 37 47  1  0
 47 48  2  0
 47 49  1  0
 49 50  1  0
 49 51  1  0
 51 52  2  0
 22 17  1  0
 30 26  1  0
 52 32  1  0
 51 35  1  0
 45 39  1  0
M  END

