
     RDKit          3D

 49 51  0  0  0  0  0  0  0  0999 V2000
   -4.7313    0.9130   -1.0113 C   0  0  0  0  0  0  0  0  0  0  0  0
   -5.5033    0.5882    0.2404 C   0  0  0  0  0  0  0  0  0  0  0  0
   -6.5227   -0.5057    0.0008 C   0  0  0  0  0  0  0  0  0  0  0  0
   -4.6637    0.3248    1.4350 C   0  0  0  0  0  0  0  0  0  0  0  0
   -3.7065   -0.7585    1.4277 C   0  0  0  0  0  0  0  0  0  0  0  0
   -2.6118   -0.7911    0.5172 N   0  0  0  0  0  0  0  0  0  0  0  0
   -1.5950    0.1604    0.4288 C   0  0  0  0  0  0  0  0  0  0  0  0
   -1.5288    1.1219    1.1133 O   0  0  0  0  0  0  0  0  0  0  0  0
   -0.5214   -0.1598   -0.6633 C   0  0  2  0  0  0  0  0  0  0  0  0
   -0.2865   -1.7212   -0.2425 C   0  0  0  0  0  0  0  0  0  0  0  0
    0.7026    0.3740    0.2141 N   0  0  0  0  0  0  0  0  0  0  0  0
    1.8761   -0.3300    0.2559 C   0  0  0  0  0  0  0  0  0  0  0  0
    1.9377   -1.3961   -0.4523 O   0  0  0  0  0  0  0  0  0  0  0  0
    3.0446    0.0888    1.0748 C   0  0  0  0  0  0  0  0  0  0  0  0
    4.2086   -0.8846    0.7296 C   0  0  0  0  0  0  0  0  0  0  0  0
    4.5366   -0.6495   -0.7561 C   0  0  0  0  0  0  0  0  0  0  0  0
    4.9920    0.7940   -0.7918 C   0  0  0  0  0  0  0  0  0  0  0  0
    4.7788    1.6377   -1.8980 N   0  0  0  0  0  0  0  0  0  0  0  0
    5.5939    1.1935    0.2660 O   0  0  0  0  0  0  0  0  0  0  0  0
    3.5571    0.7968    0.1330 C   0  0  0  0  0  0  0  0  0  0  0  0
    4.4009   -0.6450    0.0286 C   0  0  2  0  0  0  0  0  0  0  0  0
    5.6941    0.0887   -0.7267 C   0  0  0  0  0  0  0  0  0  0  0  0
    6.1304    1.0762    0.2401 N   0  0  0  0  0  0  0  0  0  0  0  0
    5.7562    2.3308    0.3887 N   0  0  0  0  0  0  0  0  0  0  0  0
    6.4338    2.8599    1.4227 C   0  0  0  0  0  0  0  0  0  0  0  0
    7.2284    1.8990    1.8996 N   0  0  0  0  0  0  0  0  0  0  0  0
    7.0280    0.8394    1.1736 N   0  0  0  0  0  0  0  0  0  0  0  0
    3.6992   -1.0585   -1.3316 N   0  0  0  0  0  0  0  0  0  0  0  0
    2.2976   -1.1867   -1.2846 C   0  0  0  0  0  0  0  0  0  0  0  0
    1.6913   -1.5360   -2.4280 N   0  0  0  0  0  0  0  0  0  0  0  0
    0.3655   -1.6932   -2.5258 C   0  0  0  0  0  0  0  0  0  0  0  0
   -0.4197   -1.4898   -1.4093 C   0  0  0  0  0  0  0  0  0  0  0  0
   -1.8002   -1.6564   -1.5227 C   0  0  0  0  0  0  0  0  0  0  0  0
   -2.5283   -1.4400   -0.3775 C   0  0  0  0  0  0  0  0  0  0  0  0
   -3.9248   -1.5699   -0.3392 O   0  0  0  0  0  0  0  0  0  0  0  0
   -4.6195   -0.4112    0.0236 C   0  0  0  0  0  0  0  0  0  0  0  0
   -5.4108   -0.4674    1.1494 C   0  0  0  0  0  0  0  0  0  0  0  0
   -6.1204    0.6543    1.5522 C   0  0  0  0  0  0  0  0  0  0  0  0
   -6.0282    1.8178    0.8221 C   0  0  0  0  0  0  0  0  0  0  0  0
   -6.7002    2.9532    1.1657 F   0  0  0  0  0  0  0  0  0  0  0  0
   -5.2362    1.8760   -0.3057 C   0  0  0  0  0  0  0  0  0  0  0  0
   -4.5284    0.7544   -0.7060 C   0  0  0  0  0  0  0  0  0  0  0  0
   -3.7325    0.7801   -1.8224 F   0  0  0  0  0  0  0  0  0  0  0  0
   -1.9172   -1.0794    0.8088 C   0  0  0  0  0  0  0  0  0  0  0  0
   -2.5846   -0.8809    1.8593 O   0  0  0  0  0  0  0  0  0  0  0  0
   -0.5803   -0.9340    0.8554 N   0  0  0  0  0  0  0  0  0  0  0  0
    0.1132   -0.5553    2.0809 C   0  0  0  0  0  0  0  0  0  0  0  0
    0.2000   -1.1342   -0.2463 C   0  0  0  0  0  0  0  0  0  0  0  0
    1.5356   -0.9888   -0.1990 N   0  0  0  0  0  0  0  0  0  0  0  0
  1  2  1  0
  2  3  1  0
  2  4  1  0
  4  5  1  0
  5  6  1  0
  6  7  1  0
  7  8  2  0
  7  9  1  0
  9 10  1  1
  9 11  1  0
 11 12  1  0
 12 13  2  0
 12 14  1  0
 14 15  1  0
 15 16  1  0
 16 17  1  0
 17 18  1  0
 17 19  2  0
 21 20  1  6
 21 22  1  0
 22 23  1  0
 23 24  1  0
 24 25  2  0
 25 26  1  0
 26 27  2  0
 21 28  1  0
 28 29  1  0
 29 30  2  0
 30 31  1  0
 31 32  2  0
 32 33  1  0
 33 34  2  0
 34 35  1  0
 35 36  1  0
 36 37  2  0
 37 38  1  0
 38 39  2  0
 39 40  1  0
 39 41  1  0
 41 42  2  0
 42 43  1  0
 34 44  1  0
 44 45  2  0
 44 46  1  0
 46 47  1  0
 46 48  1  0
 48 49  2  0
 27 23  1  0
 49 29  1  0
 48 32  1  0
 42 36  1  0
M  END

