
     RDKit          3D

 14 14  0  0  0  0  0  0  0  0999 V2000
    3.9174    1.6880    0.3097 C   0  0  0  0  0  0  0  0  0  0  0  0
    4.3161    0.3340    0.9377 C   0  0  0  0  0  0  0  0  0  0  0  0
    3.4527   -0.7230    0.4560 N   0  0  0  0  0  0  0  0  0  0  0  0
    2.0629   -0.7994    0.5998 C   0  0  0  0  0  0  0  0  0  0  0  0
    1.4706    0.1411    1.2179 O   0  0  0  0  0  0  0  0  0  0  0  0
    1.3350   -1.9682    0.0266 C   0  0  0  0  0  0  0  0  0  0  0  0
   -0.1042   -1.8073    0.3170 N   0  0  0  0  0  0  0  0  0  0  0  0
   -0.7963   -0.6643   -0.1708 C   0  0  0  0  0  0  0  0  0  0  0  0
   -0.2748    0.2065   -0.8254 O   0  0  0  0  0  0  0  0  0  0  0  0
   -2.3357   -0.5504    0.1803 C   0  0  2  0  0  0  0  0  0  0  0  0
   -2.8248   -0.7489   -1.4352 C   0  0  0  0  0  0  0  0  0  0  0  0
   -4.0232    0.1421   -1.3814 C   0  0  0  0  0  0  0  0  0  0  0  0
   -3.7866    1.1578   -0.2908 C   0  0  0  0  0  0  0  0  0  0  0  0
   -2.4091    1.0331    0.0587 N   0  0  0  0  0  0  0  0  0  0  0  0
  1  2  1  0
  2  3  1  0
  3  4  1  0
  4  5  2  0
  4  6  1  0
  6  7  1  0
  7  8  1  0
  8  9  2  0
 10  8  1  6
 10 11  1  0
 11 12  1  0
 12 13  1  0
 13 14  1  0
 14 10  1  0
M  END

