
     RDKit          3D

 49 52  0  0  0  0  0  0  0  0999 V2000
    4.5552    0.6850   -0.4344 C   0  0  0  0  0  0  0  0  0  0  0  0
    4.6498   -0.2829    0.9325 C   0  0  2  0  0  0  0  0  0  0  0  0
    5.8566   -1.2436    0.2789 C   0  0  0  0  0  0  0  0  0  0  0  0
    6.9344   -0.3120    0.0248 N   0  0  0  0  0  0  0  0  0  0  0  0
    7.9209    0.0579    0.7967 N   0  0  0  0  0  0  0  0  0  0  0  0
    8.6563    0.9420    0.1065 C   0  0  0  0  0  0  0  0  0  0  0  0
    8.0979    1.0986   -1.0916 N   0  0  0  0  0  0  0  0  0  0  0  0
    7.0529    0.3272   -1.1197 N   0  0  0  0  0  0  0  0  0  0  0  0
    3.4962   -1.2428    0.4340 N   0  0  0  0  0  0  0  0  0  0  0  0
    2.2413   -0.6060    0.2181 C   0  0  0  0  0  0  0  0  0  0  0  0
    2.0910    0.7147    0.4338 N   0  0  0  0  0  0  0  0  0  0  0  0
    0.9178    1.3448    0.2386 C   0  0  0  0  0  0  0  0  0  0  0  0
   -0.2000    0.6594   -0.1969 C   0  0  0  0  0  0  0  0  0  0  0  0
   -1.4194    1.2650   -0.4093 C   0  0  0  0  0  0  0  0  0  0  0  0
   -2.5005    0.4961   -0.8510 C   0  0  0  0  0  0  0  0  0  0  0  0
   -3.7156    1.1299   -1.0568 O   0  0  0  0  0  0  0  0  0  0  0  0
   -4.8577    0.7715   -0.3688 C   0  0  0  0  0  0  0  0  0  0  0  0
   -6.0005    0.3203   -1.0094 C   0  0  0  0  0  0  0  0  0  0  0  0
   -7.1198   -0.0271   -0.2802 C   0  0  0  0  0  0  0  0  0  0  0  0
   -7.1525    0.0573    1.0977 C   0  0  0  0  0  0  0  0  0  0  0  0
   -8.2682   -0.2901    1.8085 F   0  0  0  0  0  0  0  0  0  0  0  0
   -6.0079    0.5084    1.7276 C   0  0  0  0  0  0  0  0  0  0  0  0
   -4.8841    0.8581    1.0082 C   0  0  0  0  0  0  0  0  0  0  0  0
   -3.7475    1.3064    1.6374 F   0  0  0  0  0  0  0  0  0  0  0  0
   -2.3306   -0.8544   -1.0671 C   0  0  0  0  0  0  0  0  0  0  0  0
   -3.3061   -1.5496   -1.4660 O   0  0  0  0  0  0  0  0  0  0  0  0
   -1.1158   -1.3765   -0.8398 N   0  0  0  0  0  0  0  0  0  0  0  0
   -0.9548   -2.7978   -1.0721 C   0  0  0  0  0  0  0  0  0  0  0  0
   -0.0457   -0.6942   -0.4178 C   0  0  0  0  0  0  0  0  0  0  0  0
    1.1562   -1.2657   -0.2036 N   0  0  0  0  0  0  0  0  0  0  0  0
    5.2085    1.5080   -1.3805 N   0  0  0  0  0  0  0  0  0  0  0  0
    4.2140    1.2563   -0.3466 C   0  0  0  0  0  0  0  0  0  0  0  0
    3.3240    2.1321   -0.1724 O   0  0  0  0  0  0  0  0  0  0  0  0
    4.3616    0.0115    0.3850 C   0  0  0  0  0  0  0  0  0  0  0  0
    3.3714   -0.5540    1.1791 C   0  0  0  0  0  0  0  0  0  0  0  0
    2.1447   -0.9932    0.9065 N   0  0  0  0  0  0  0  0  0  0  0  0
    0.9254   -0.5087    0.4447 C   0  0  0  0  0  0  0  0  0  0  0  0
    0.7799    0.6295    0.1838 O   0  0  0  0  0  0  0  0  0  0  0  0
   -0.1407   -1.6557    0.3295 C   0  0  2  0  0  0  0  0  0  0  0  0
    0.4047   -2.2162   -1.1056 C   0  0  0  0  0  0  0  0  0  0  0  0
    1.4319   -3.0137   -0.7607 O   0  0  0  0  0  0  0  0  0  0  0  0
   -1.2806   -0.8267   -0.3339 N   0  0  0  0  0  0  0  0  0  0  0  0
   -2.3905   -0.7253    0.4995 C   0  0  0  0  0  0  0  0  0  0  0  0
   -2.5076   -1.1864    1.6252 O   0  0  0  0  0  0  0  0  0  0  0  0
   -3.6441    0.0966   -0.1103 C   0  0  2  0  0  0  0  0  0  0  0  0
   -2.8348    1.4989   -0.3032 C   0  0  0  0  0  0  0  0  0  0  0  0
   -4.0919    2.3640   -0.2490 C   0  0  0  0  0  0  0  0  0  0  0  0
   -5.0138    1.6518    0.6802 C   0  0  0  0  0  0  0  0  0  0  0  0
   -4.2622    0.5311    1.2531 N   0  0  0  0  0  0  0  0  0  0  0  0
  2  1  1  6
  2  3  1  0
  3  4  1  0
  4  5  1  0
  5  6  2  0
  6  7  1  0
  7  8  2  0
  2  9  1  0
  9 10  1  0
 10 11  2  0
 11 12  1  0
 12 13  2  0
 13 14  1  0
 14 15  2  0
 15 16  1  0
 16 17  1  0
 17 18  2  0
 18 19  1  0
 19 20  2  0
 20 21  1  0
 20 22  1  0
 22 23  2  0
 23 24  1  0
 15 25  1  0
 25 26  2  0
 25 27  1  0
 27 28  1  0
 27 29  1  0
 29 30  2  0
 31 32  1  0
 32 33  2  0
 32 34  1  0
 34 35  1  0
 35 36  1  0
 36 37  1  0
 37 38  2  0
 37 39  1  0
 39 40  1  6
 40 41  1  0
 39 42  1  0
 42 43  1  0
 43 44  2  0
 45 43  1  1
 45 46  1  0
 46 47  1  0
 47 48  1  0
 48 49  1  0
  8  4  1  0
 30 10  1  0
 49 45  1  0
 29 13  1  0
 23 17  1  0
M  END

