
     RDKit          3D

 50 52  0  0  0  0  0  0  0  0999 V2000
   -0.4088   -3.3789    1.9586 C   0  0  0  0  0  0  0  0  0  0  0  0
   -0.6224   -2.2137    2.8058 C   0  0  0  0  0  0  0  0  0  0  0  0
   -1.4370   -1.0431    2.0649 C   0  0  2  0  0  0  0  0  0  0  0  0
   -2.7810   -1.8832    1.7526 C   0  0  0  0  0  0  0  0  0  0  0  0
   -0.7478   -1.3536    0.5364 C   0  0  2  0  0  0  0  0  0  0  0  0
    0.7009   -1.0752    1.0421 N   0  0  0  0  0  0  0  0  0  0  0  0
    1.6743   -0.9081    0.0302 C   0  0  0  0  0  0  0  0  0  0  0  0
    1.3785   -0.9826   -1.2111 O   0  0  0  0  0  0  0  0  0  0  0  0
    3.1068   -0.6343    0.3134 C   0  0  0  0  0  0  0  0  0  0  0  0
    3.9426   -0.4870   -0.9102 C   0  0  0  0  0  0  0  0  0  0  0  0
    3.5489    0.5875   -1.8073 C   0  0  0  0  0  0  0  0  0  0  0  0
    4.2094    0.7707   -3.0351 N   0  0  0  0  0  0  0  0  0  0  0  0
    2.6162    1.3573   -1.4889 O   0  0  0  0  0  0  0  0  0  0  0  0
   -1.0392    0.1225    0.0199 C   0  0  0  0  0  0  0  0  0  0  0  0
   -0.2196    1.0120    0.1057 O   0  0  0  0  0  0  0  0  0  0  0  0
   -2.3061    0.3049   -0.5349 N   0  0  0  0  0  0  0  0  0  0  0  0
   -2.8270    1.4996   -1.0584 C   0  0  0  0  0  0  0  0  0  0  0  0
   -3.0100    2.6713   -0.1980 C   0  0  0  0  0  0  0  0  0  0  0  0
   -1.7228    3.1323    0.3926 C   0  0  0  0  0  0  0  0  0  0  0  0
   -4.0558    2.5018    0.8965 C   0  0  0  0  0  0  0  0  0  0  0  0
    4.0559   -0.0223    0.4642 C   0  0  0  0  0  0  0  0  0  0  0  0
    4.3736    0.4075   -1.1015 C   0  0  2  0  0  0  0  0  0  0  0  0
    5.8795    0.9957   -0.7574 C   0  0  0  0  0  0  0  0  0  0  0  0
    6.6106   -0.1071   -0.2149 N   0  0  0  0  0  0  0  0  0  0  0  0
    6.6324   -0.3777    1.0704 N   0  0  0  0  0  0  0  0  0  0  0  0
    7.3819   -1.4440    1.2833 C   0  0  0  0  0  0  0  0  0  0  0  0
    7.8221   -1.8206    0.0753 N   0  0  0  0  0  0  0  0  0  0  0  0
    7.3448   -1.0000   -0.8165 N   0  0  0  0  0  0  0  0  0  0  0  0
    3.6919    1.8180   -0.9426 N   0  0  0  0  0  0  0  0  0  0  0  0
    2.3444    1.7414   -0.5926 C   0  0  0  0  0  0  0  0  0  0  0  0
    1.6110    2.8744   -0.4168 N   0  0  0  0  0  0  0  0  0  0  0  0
    0.3138    2.8052   -0.0799 C   0  0  0  0  0  0  0  0  0  0  0  0
   -0.3431    1.5906    0.1054 C   0  0  0  0  0  0  0  0  0  0  0  0
   -1.6493    1.4954    0.4445 C   0  0  0  0  0  0  0  0  0  0  0  0
   -2.2991    0.2205    0.6286 C   0  0  0  0  0  0  0  0  0  0  0  0
   -3.5858    0.2461    0.9637 O   0  0  0  0  0  0  0  0  0  0  0  0
   -4.7590   -0.1095    0.4771 C   0  0  0  0  0  0  0  0  0  0  0  0
   -5.6258    0.9711    0.1704 C   0  0  0  0  0  0  0  0  0  0  0  0
   -6.8603    0.7752   -0.3317 C   0  0  0  0  0  0  0  0  0  0  0  0
   -7.3353   -0.4975   -0.5699 C   0  0  0  0  0  0  0  0  0  0  0  0
   -8.5789   -0.6990   -1.0767 F   0  0  0  0  0  0  0  0  0  0  0  0
   -6.5062   -1.5370   -0.2759 C   0  0  0  0  0  0  0  0  0  0  0  0
   -5.2341   -1.3525    0.2416 C   0  0  0  0  0  0  0  0  0  0  0  0
   -4.5386   -2.4866    0.5246 F   0  0  0  0  0  0  0  0  0  0  0  0
   -1.4873   -0.8544    0.4331 C   0  0  0  0  0  0  0  0  0  0  0  0
   -1.8832   -2.0498    0.5553 O   0  0  0  0  0  0  0  0  0  0  0  0
   -0.1624   -0.7283    0.0881 N   0  0  0  0  0  0  0  0  0  0  0  0
    0.6477   -1.9063   -0.1066 C   0  0  0  0  0  0  0  0  0  0  0  0
    0.4264    0.4611   -0.0798 C   0  0  0  0  0  0  0  0  0  0  0  0
    1.7125    0.5902   -0.4145 N   0  0  0  0  0  0  0  0  0  0  0  0
  1  2  1  0
  2  3  1  0
  3  4  1  6
  3  5  1  0
  5  6  1  1
  6  7  1  0
  7  8  2  0
  7  9  1  0
  9 10  1  0
 10 11  1  0
 11 12  1  0
 11 13  2  0
  5 14  1  0
 14 15  2  0
 14 16  1  0
 16 17  1  0
 17 18  1  0
 18 19  1  0
 18 20  1  0
 22 21  1  1
 22 23  1  0
 23 24  1  0
 24 25  1  0
 25 26  2  0
 26 27  1  0
 27 28  2  0
 22 29  1  0
 29 30  1  0
 30 31  2  0
 31 32  1  0
 32 33  2  0
 33 34  1  0
 34 35  2  0
 35 36  1  0
 36 37  1  0
 37 38  2  0
 38 39  1  0
 39 40  2  0
 40 41  1  0
 40 42  1  0
 42 43  2  0
 43 44  1  0
 35 45  1  0
 45 46  2  0
 45 47  1  0
 47 48  1  0
 47 49  1  0
 49 50  2  0
 28 24  1  0
 50 30  1  0
 49 33  1  0
 43 37  1  0
M  END

