
     RDKit          3D

 21 20  0  0  0  0  0  0  0  0999 V2000
   -3.9150   -3.1583    0.1060 C   0  0  0  0  0  0  0  0  0  0  0  0
   -4.9092   -2.1995    0.6154 C   0  0  0  0  0  0  0  0  0  0  0  0
   -4.5796   -0.7052    0.0470 C   0  0  2  0  0  0  0  0  0  0  0  0
   -4.7232   -1.1470   -1.5329 C   0  0  0  0  0  0  0  0  0  0  0  0
   -2.9518   -0.8994    0.0640 C   0  0  0  0  0  0  0  0  0  0  0  0
   -2.4469    0.3916   -0.4263 N   0  0  0  0  0  0  0  0  0  0  0  0
   -1.0598    0.5643   -0.5432 C   0  0  0  0  0  0  0  0  0  0  0  0
   -0.3107   -0.3529   -0.2428 O   0  0  0  0  0  0  0  0  0  0  0  0
   -0.4354    1.8886   -1.0433 C   0  0  1  0  0  0  0  0  0  0  0  0
    1.0698    1.5116   -0.9701 N   0  0  0  0  0  0  0  0  0  0  0  0
    1.6072    1.3065    0.3204 C   0  0  0  0  0  0  0  0  0  0  0  0
    0.8355    1.4447    1.2809 O   0  0  0  0  0  0  0  0  0  0  0  0
    3.0442    0.9435    0.4309 C   0  0  0  0  0  0  0  0  0  0  0  0
    3.3572    0.7216    1.8843 C   0  0  0  0  0  0  0  0  0  0  0  0
    4.8115    0.3548    2.0574 C   0  0  0  0  0  0  0  0  0  0  0  0
    5.1380   -0.9070    1.2956 C   0  0  0  0  0  0  0  0  0  0  0  0
    4.2811   -2.0296    1.8155 C   0  0  0  0  0  0  0  0  0  0  0  0
    4.5550   -2.2193    3.2113 N   0  0  0  0  0  4  0  0  0  0  0  0
   -0.5517    1.7002   -2.7504 C   0  0  1  0  0  0  0  0  0  0  0  0
   -0.7911    0.0802   -2.8039 C   0  0  0  0  0  0  0  0  0  0  0  0
   -2.0252    2.0504   -2.8159 O   0  0  0  0  0  0  0  0  0  0  0  0
  1  2  1  0
  2  3  1  0
  3  4  1  6
  3  5  1  0
  5  6  1  0
  6  7  1  0
  7  8  2  0
  7  9  1  0
  9 10  1  6
 10 11  1  0
 11 12  2  0
 11 13  1  0
 13 14  1  0
 14 15  1  0
 15 16  1  0
 16 17  1  0
 17 18  1  0
  9 19  1  0
 19 20  1  1
 19 21  1  0
M  CHG  1  18   1
M  END

