
     RDKit          3D

 53 55  0  0  0  0  0  0  0  0999 V2000
    4.4139    4.0005   -0.8579 C   0  0  0  0  0  0  0  0  0  0  0  0
    4.2905    4.0070    0.6399 C   0  0  0  0  0  0  0  0  0  0  0  0
    5.6556    3.8024    1.2972 C   0  0  0  0  0  0  0  0  0  0  0  0
    3.3137    2.9199    1.0452 C   0  0  0  0  0  0  0  0  0  0  0  0
    3.8276    1.5798    0.5715 C   0  0  0  0  0  0  0  0  0  0  0  0
    2.9717    0.4952    0.9389 N   0  0  0  0  0  0  0  0  0  0  0  0
    1.6340    0.3217    0.5597 C   0  0  0  0  0  0  0  0  0  0  0  0
    1.1239    1.1371   -0.1430 O   0  0  0  0  0  0  0  0  0  0  0  0
    0.8681   -0.8887    1.0539 C   0  0  2  0  0  0  0  0  0  0  0  0
    1.4300   -1.9825   -0.0982 C   0  0  0  0  0  0  0  0  0  0  0  0
    0.6505   -3.2123    0.3948 C   0  0  0  0  0  0  0  0  0  0  0  0
    0.9655   -4.4117   -0.4888 C   0  0  0  0  0  0  0  0  0  0  0  0
    0.5788   -4.1132   -1.9341 C   0  0  0  0  0  0  0  0  0  0  0  0
    1.3527   -2.9459   -2.3880 N   0  0  0  0  0  4  0  0  0  0  0  0
   -0.5126   -0.9553    0.6684 N   0  0  0  0  0  0  0  0  0  0  0  0
   -1.5144   -0.1856    0.2206 C   0  0  0  0  0  0  0  0  0  0  0  0
   -1.2132    1.0141    0.0550 O   0  0  0  0  0  0  0  0  0  0  0  0
   -2.9178   -0.6777   -0.0742 C   0  0  0  0  0  0  0  0  0  0  0  0
   -3.6668    0.4896   -0.6302 C   0  0  0  0  0  0  0  0  0  0  0  0
   -5.0856    0.2748   -0.9506 C   0  0  0  0  0  0  0  0  0  0  0  0
   -5.8325   -0.1203    0.2986 C   0  0  0  0  0  0  0  0  0  0  0  0
   -7.1954    0.2150    0.4680 N   0  0  0  0  0  0  0  0  0  0  0  0
   -5.1381   -0.7640    1.1491 O   0  0  0  0  0  0  0  0  0  0  0  0
    3.9033    1.0122   -0.7960 C   0  0  0  0  0  0  0  0  0  0  0  0
    4.4588    0.5794    0.7103 C   0  0  2  0  0  0  0  0  0  0  0  0
    5.7987   -0.2434    0.1862 C   0  0  0  0  0  0  0  0  0  0  0  0
    6.6136    0.6622   -0.5389 N   0  0  0  0  0  0  0  0  0  0  0  0
    6.4941    0.8508   -1.8448 N   0  0  0  0  0  0  0  0  0  0  0  0
    7.3689    1.7447   -2.2802 C   0  0  0  0  0  0  0  0  0  0  0  0
    8.0585    2.1230   -1.1895 N   0  0  0  0  0  0  0  0  0  0  0  0
    7.5900    1.4602   -0.1475 N   0  0  0  0  0  0  0  0  0  0  0  0
    3.5778   -0.7413    0.7366 N   0  0  0  0  0  0  0  0  0  0  0  0
    2.1807   -0.4711    0.6312 C   0  0  0  0  0  0  0  0  0  0  0  0
    1.6531    0.7462    0.5220 N   0  0  0  0  0  0  0  0  0  0  0  0
    0.3111    0.9010    0.4272 C   0  0  0  0  0  0  0  0  0  0  0  0
   -0.5349   -0.2116    0.4428 C   0  0  0  0  0  0  0  0  0  0  0  0
   -1.8940   -0.0900    0.3490 C   0  0  0  0  0  0  0  0  0  0  0  0
   -2.6457   -1.2590    0.3741 C   0  0  0  0  0  0  0  0  0  0  0  0
   -4.0189   -1.2626    0.2872 O   0  0  0  0  0  0  0  0  0  0  0  0
   -4.8077   -0.1420    0.1674 C   0  0  0  0  0  0  0  0  0  0  0  0
   -5.7630    0.1360    1.1407 C   0  0  0  0  0  0  0  0  0  0  0  0
   -6.5730    1.2380    1.0684 C   0  0  0  0  0  0  0  0  0  0  0  0
   -6.4740    2.1257    0.0177 C   0  0  0  0  0  0  0  0  0  0  0  0
   -7.2777    3.2191   -0.0542 F   0  0  0  0  0  0  0  0  0  0  0  0
   -5.5275    1.8513   -0.9476 C   0  0  0  0  0  0  0  0  0  0  0  0
   -4.7068    0.7447   -0.8845 C   0  0  0  0  0  0  0  0  0  0  0  0
   -3.7879    0.5242   -1.8694 F   0  0  0  0  0  0  0  0  0  0  0  0
   -2.0151   -2.4871    0.4905 C   0  0  0  0  0  0  0  0  0  0  0  0
   -2.7053   -3.5472    0.5126 O   0  0  0  0  0  0  0  0  0  0  0  0
   -0.6805   -2.5953    0.5818 N   0  0  0  0  0  0  0  0  0  0  0  0
   -0.0152   -3.8985    0.7051 C   0  0  0  0  0  0  0  0  0  0  0  0
    0.0389   -1.4489    0.5562 C   0  0  0  0  0  0  0  0  0  0  0  0
    1.3799   -1.5209    0.6457 N   0  0  0  0  0  0  0  0  0  0  0  0
  1  2  1  0
  2  3  1  0
  2  4  1  0
  4  5  1  0
  5  6  1  0
  6  7  1  0
  7  8  2  0
  7  9  1  0
  9 10  1  6
 10 11  1  0
 11 12  1  0
 12 13  1  0
 13 14  1  0
  9 15  1  0
 15 16  1  0
 16 17  2  0
 16 18  1  0
 18 19  1  0
 19 20  1  0
 20 21  1  0
 21 22  1  0
 21 23  2  0
 25 24  1  6
 25 26  1  0
 26 27  1  0
 27 28  1  0
 28 29  2  0
 29 30  1  0
 30 31  2  0
 25 32  1  0
 32 33  1  0
 33 34  2  0
 34 35  1  0
 35 36  2  0
 36 37  1  0
 37 38  2  0
 38 39  1  0
 39 40  1  0
 40 41  2  0
 41 42  1  0
 42 43  2  0
 43 44  1  0
 43 45  1  0
 45 46  2  0
 46 47  1  0
 38 48  1  0
 48 49  2  0
 48 50  1  0
 50 51  1  0
 50 52  1  0
 52 53  2  0
 31 27  1  0
 53 33  1  0
 52 36  1  0
 46 40  1  0
M  CHG  1  14   1
M  END

