
     RDKit          3D

 19 18  0  0  0  0  0  0  0  0999 V2000
    4.4464   -1.2322   -1.5459 C   0  0  0  0  0  0  0  0  0  0  0  0
    3.6028   -0.0142   -1.9347 C   0  0  0  0  0  0  0  0  0  0  0  0
    3.8156    0.9429   -0.5910 C   0  0  2  0  0  0  0  0  0  0  0  0
    3.1779   -0.1664    0.3914 C   0  0  0  0  0  0  0  0  0  0  0  0
    2.5337    1.8471   -0.7486 C   0  0  0  0  0  0  0  0  0  0  0  0
    1.2996    1.4682   -0.7607 N   0  0  0  0  0  0  0  0  0  0  0  0
    0.5150    0.8862    0.2104 C   0  0  0  0  0  0  0  0  0  0  0  0
    0.9615    0.6662    1.2893 O   0  0  0  0  0  0  0  0  0  0  0  0
   -1.0110    0.5264   -0.1916 C   0  0  1  0  0  0  0  0  0  0  0  0
   -1.3597   -0.1094    1.1930 N   0  0  0  0  0  0  0  0  0  0  0  0
   -1.6118   -1.5241    1.0679 C   0  0  0  0  0  0  0  0  0  0  0  0
   -1.5369   -2.0761   -0.0809 O   0  0  0  0  0  0  0  0  0  0  0  0
   -1.9517   -2.3261    2.2641 C   0  0  0  0  0  0  0  0  0  0  0  0
   -2.1178   -3.7567    1.8545 C   0  0  0  0  0  0  0  0  0  0  0  0
   -3.1497   -3.8217    0.9115 O   0  0  0  0  0  0  0  0  0  0  0  0
   -1.6041    2.0624    0.2633 C   0  0  1  0  0  0  0  0  0  0  0  0
   -0.6669    2.8483   -0.7841 C   0  0  0  0  0  0  0  0  0  0  0  0
   -2.8858    1.9684   -0.7070 C   0  0  0  0  0  0  0  0  0  0  0  0
   -2.4571    1.8107   -2.1158 C   0  0  0  0  0  0  0  0  0  0  0  0
  1  2  1  0
  2  3  1  0
  3  4  1  1
  3  5  1  0
  5  6  1  0
  6  7  1  0
  7  8  2  0
  7  9  1  0
  9 10  1  1
 10 11  1  0
 11 12  2  0
 11 13  1  0
 13 14  1  0
 14 15  1  0
  9 16  1  0
 16 17  1  6
 16 18  1  0
 18 19  1  0
M  END

