
     RDKit          3D

 50 52  0  0  0  0  0  0  0  0999 V2000
    2.0721   -5.8243    0.5950 C   0  0  0  0  0  0  0  0  0  0  0  0
    2.0321   -4.8458    1.9654 C   0  0  1  0  0  0  0  0  0  0  0  0
    3.5083   -4.1786    1.6018 C   0  0  0  0  0  0  0  0  0  0  0  0
    3.6902   -3.2570    2.7144 N   0  0  0  0  0  0  0  0  0  0  0  0
    4.2751   -3.5628    3.8541 N   0  0  0  0  0  0  0  0  0  0  0  0
    4.2723   -2.4841    4.6536 C   0  0  0  0  0  0  0  0  0  0  0  0
    3.6649   -1.5086    3.9608 N   0  0  0  0  0  0  0  0  0  0  0  0
    3.3294   -2.0099    2.8014 N   0  0  0  0  0  0  0  0  0  0  0  0
    1.1748   -3.8667    1.5373 N   0  0  0  0  0  0  0  0  0  0  0  0
    0.3452   -2.9285    1.1244 C   0  0  0  0  0  0  0  0  0  0  0  0
   -0.9460   -3.2250    0.7269 N   0  0  0  0  0  0  0  0  0  0  0  0
   -1.7914   -2.2920    0.3081 C   0  0  0  0  0  0  0  0  0  0  0  0
   -1.4429   -0.9631    0.2395 C   0  0  0  0  0  0  0  0  0  0  0  0
   -2.2966    0.0145   -0.1871 C   0  0  0  0  0  0  0  0  0  0  0  0
   -1.9037    1.3528   -0.2403 C   0  0  0  0  0  0  0  0  0  0  0  0
   -2.7513    2.3479   -0.6665 O   0  0  0  0  0  0  0  0  0  0  0  0
   -2.4032    3.1094   -1.7682 C   0  0  0  0  0  0  0  0  0  0  0  0
   -1.2298    2.9297   -2.4731 C   0  0  0  0  0  0  0  0  0  0  0  0
   -0.9592    3.7315   -3.5602 C   0  0  0  0  0  0  0  0  0  0  0  0
   -1.8042    4.7224   -3.9968 C   0  0  0  0  0  0  0  0  0  0  0  0
   -1.4914    5.4867   -5.0762 F   0  0  0  0  0  0  0  0  0  0  0  0
   -2.9828    4.9029   -3.2887 C   0  0  0  0  0  0  0  0  0  0  0  0
   -3.2734    4.1129   -2.1993 C   0  0  0  0  0  0  0  0  0  0  0  0
   -4.4251    4.2689   -1.4857 F   0  0  0  0  0  0  0  0  0  0  0  0
   -0.6268    1.6523    0.1520 C   0  0  0  0  0  0  0  0  0  0  0  0
   -0.2648    2.8608    0.1067 O   0  0  0  0  0  0  0  0  0  0  0  0
    0.2000    0.6708    0.5700 N   0  0  0  0  0  0  0  0  0  0  0  0
    1.5356    1.0136    0.9738 C   0  0  0  0  0  0  0  0  0  0  0  0
   -0.1649   -0.6375    0.6284 C   0  0  0  0  0  0  0  0  0  0  0  0
    0.6576   -1.5931    1.0427 N   0  0  0  0  0  0  0  0  0  0  0  0
    6.4598    0.0805   -0.0784 O   0  0  0  0  0  1  0  0  0  0  0  0
    5.1469    0.0701    0.3610 C   0  0  0  0  0  0  0  0  0  0  0  0
    4.6908    1.1177    0.8792 O   0  0  0  0  0  0  0  0  0  0  0  0
    4.3392   -1.1615    0.2052 C   0  0  0  0  0  0  0  0  0  0  0  0
    2.9392   -1.0168    0.7296 C   0  0  0  0  0  0  0  0  0  0  0  0
    2.1449    0.0582    0.0563 C   0  0  0  0  0  0  0  0  0  0  0  0
    0.7891    0.0835    0.6742 C   0  0  0  0  0  0  0  0  0  0  0  0
    0.4750   -0.7041    1.5993 O   0  0  0  0  0  0  0  0  0  0  0  0
   -0.2290    0.9829    0.2691 N   0  0  0  0  0  0  0  0  0  0  0  0
   -1.5850    0.8377    1.0523 C   0  0  1  0  0  0  0  0  0  0  0  0
   -2.4484    1.6858   -0.0763 C   0  0  0  0  0  0  0  0  0  0  0  0
   -1.7561    2.9897   -0.0485 C   0  0  0  0  0  0  0  0  0  0  0  0
   -0.6876    3.3264    0.7473 O   0  0  0  0  0  1  0  0  0  0  0  0
   -2.1788    3.9027   -0.8326 O   0  0  0  0  0  0  0  0  0  0  0  0
   -1.9516   -0.6144    0.4759 C   0  0  0  0  0  0  0  0  0  0  0  0
   -1.2803   -1.2321   -0.2922 O   0  0  0  0  0  0  0  0  0  0  0  0
   -3.1799   -1.1439    0.9583 N   0  0  0  0  0  0  0  0  0  0  0  0
   -3.5952   -2.4398    0.4996 C   0  0  0  0  0  0  0  0  0  0  0  0
   -3.7862   -2.5572   -0.9699 C   0  0  0  0  0  0  0  0  0  0  0  0
   -4.3068   -4.2654   -1.3254 S   0  0  0  0  0  0  0  0  0  0  0  0
  2  1  1  1
  2  3  1  0
  3  4  1  0
  4  5  1  0
  5  6  2  0
  6  7  1  0
  7  8  2  0
  2  9  1  0
  9 10  1  0
 10 11  2  0
 11 12  1  0
 12 13  2  0
 13 14  1  0
 14 15  2  0
 15 16  1  0
 16 17  1  0
 17 18  2  0
 18 19  1  0
 19 20  2  0
 20 21  1  0
 20 22  1  0
 22 23  2  0
 23 24  1  0
 15 25  1  0
 25 26  2  0
 25 27  1  0
 27 28  1  0
 27 29  1  0
 29 30  2  0
 31 32  1  0
 32 33  2  0
 32 34  1  0
 34 35  1  0
 35 36  1  0
 36 37  1  0
 37 38  2  0
 37 39  1  0
 39 40  1  0
 40 41  1  6
 41 42  1  0
 42 43  1  0
 42 44  2  0
 40 45  1  0
 45 46  2  0
 45 47  1  0
 47 48  1  0
 48 49  1  0
 49 50  1  0
  8  4  1  0
 30 10  1  0
 29 13  1  0
 23 17  1  0
M  RAD  2  31   2  43   2
M  END

