
     RDKit          3D

 23 23  0  0  0  0  0  0  0  0999 V2000
   -3.2589   -3.8412   -0.2220 N   0  0  0  0  0  0  0  0  0  0  0  0
   -2.3881   -2.7561    0.0319 C   0  0  0  0  0  0  0  0  0  0  0  0
   -1.2541   -2.7529   -0.5562 O   0  0  0  0  0  0  0  0  0  0  0  0
   -2.7909   -1.6811    0.9347 C   0  0  0  0  0  0  0  0  0  0  0  0
   -1.7097   -0.6985    1.2225 C   0  0  0  0  0  0  0  0  0  0  0  0
   -1.2646   -0.0703   -0.2466 C   0  0  2  0  0  0  0  0  0  0  0  0
   -0.1628    0.8925    0.3501 N   0  0  0  0  0  0  0  0  0  0  0  0
    1.1003    0.8563   -0.3196 C   0  0  0  0  0  0  0  0  0  0  0  0
    1.2739    0.1177   -1.2776 O   0  0  0  0  0  0  0  0  0  0  0  0
    2.1369    1.7451    0.2194 C   0  0  0  0  0  0  0  0  0  0  0  0
    3.4511    1.7081   -0.4478 C   0  0  0  0  0  0  0  0  0  0  0  0
    4.0443    0.3542   -0.3537 C   0  0  0  0  0  0  0  0  0  0  0  0
    4.8151    0.0393    0.7771 C   0  0  0  0  0  0  0  0  0  0  0  0
    5.4125   -1.2009    0.9109 C   0  0  0  0  0  0  0  0  0  0  0  0
    5.2314   -2.1181   -0.0944 C   0  0  0  0  0  0  0  0  0  0  0  0
    4.4649   -1.8121   -1.2252 C   0  0  0  0  0  0  0  0  0  0  0  0
    3.8813   -0.5672   -1.3306 C   0  0  0  0  0  0  0  0  0  0  0  0
   -2.4354    1.0077   -0.3404 C   0  0  0  0  0  0  0  0  0  0  0  0
   -2.0650    2.1782   -0.4976 O   0  0  0  0  0  0  0  0  0  0  0  0
   -3.7644    0.6398   -0.2517 N   0  0  0  0  0  0  0  0  0  0  0  0
   -4.7828    1.6669   -0.3548 C   0  0  0  0  0  0  0  0  0  0  0  0
   -4.5106    2.6388    0.7737 C   0  0  0  0  0  0  0  0  0  0  0  0
   -5.4247    3.6538    0.7671 O   0  0  0  0  0  0  0  0  0  0  0  0
  1  2  1  0
  2  3  2  0
  2  4  1  0
  4  5  1  0
  6  5  1  1
  6  7  1  0
  7  8  1  0
  8  9  2  0
  8 10  1  0
 10 11  1  0
 11 12  1  0
 12 13  2  0
 13 14  1  0
 14 15  2  0
 15 16  1  0
 16 17  2  0
  6 18  1  0
 18 19  2  0
 18 20  1  0
 20 21  1  0
 21 22  1  0
 22 23  1  0
 17 12  1  0
M  END

