
     RDKit          3D

 23 23  0  0  0  0  0  0  0  0999 V2000
    6.7283    2.9208    0.7365 N   0  0  0  0  0  0  0  0  0  0  0  0
    6.5885    1.5966    1.2391 C   0  0  0  0  0  0  0  0  0  0  0  0
    7.5643    0.8499    1.4558 O   0  0  0  0  0  0  0  0  0  0  0  0
    5.2200    1.0636    1.5242 C   0  0  0  0  0  0  0  0  0  0  0  0
    5.2957   -0.3538    2.0457 C   0  0  0  0  0  0  0  0  0  0  0  0
    3.8949   -0.8205    2.3082 C   0  0  0  0  0  0  0  0  0  0  0  0
    3.1296   -0.7736    1.0540 C   0  0  0  0  0  0  0  0  0  0  0  0
    3.6653   -0.3890    0.0002 O   0  0  0  0  0  0  0  0  0  0  0  0
    1.7622   -1.1839    1.0993 N   0  0  0  0  0  0  0  0  0  0  0  0
    1.0422   -1.0912   -0.3054 C   0  0  1  0  0  0  0  0  0  0  0  0
    0.6881   -2.7102   -0.3780 C   0  0  0  0  0  0  0  0  0  0  0  0
   -0.0853   -3.0123    0.6958 O   0  0  0  0  0  0  0  0  0  0  0  0
   -0.3769   -0.6438    0.2450 C   0  0  0  0  0  0  0  0  0  0  0  0
   -0.5639   -0.4963    1.4314 O   0  0  0  0  0  0  0  0  0  0  0  0
   -1.3566   -0.4425   -0.7288 N   0  0  0  0  0  0  0  0  0  0  0  0
   -2.7268   -0.0265   -0.3992 C   0  0  0  0  0  0  0  0  0  0  0  0
   -3.4810    0.0840   -1.7089 C   0  0  0  0  0  0  0  0  0  0  0  0
   -4.8749    0.5042   -1.4134 C   0  0  0  0  0  0  0  0  0  0  0  0
   -5.1838    1.8454   -1.3701 C   0  0  0  0  0  0  0  0  0  0  0  0
   -6.4654    2.2603   -1.0989 C   0  0  0  0  0  0  0  0  0  0  0  0
   -7.4481    1.3188   -0.8685 C   0  0  0  0  0  0  0  0  0  0  0  0
   -7.1570   -0.0442   -0.9075 C   0  0  0  0  0  0  0  0  0  0  0  0
   -5.8592   -0.4558   -1.1822 C   0  0  0  0  0  0  0  0  0  0  0  0
  1  2  1  0
  2  3  2  0
  2  4  1  0
  4  5  1  0
  5  6  1  0
  6  7  1  0
  7  8  2  0
  7  9  1  0
  9 10  1  0
 10 11  1  1
 11 12  1  0
 10 13  1  0
 13 14  2  0
 13 15  1  0
 15 16  1  0
 16 17  1  0
 17 18  1  0
 18 19  2  0
 19 20  1  0
 20 21  2  0
 21 22  1  0
 22 23  2  0
 23 18  1  0
M  END

