
     RDKit          3D

 24 25  0  0  0  0  0  0  0  0999 V2000
    0.0225    0.6692   -1.9113 C   0  0  0  0  0  0  0  0  0  0  0  0
    0.0021   -0.1119   -0.4297 C   0  0  2  0  0  0  0  0  0  0  0  0
   -1.4636    0.3768   -0.0822 N   0  0  0  0  0  0  0  0  0  0  0  0
   -2.4694   -0.6334   -0.1886 C   0  0  0  0  0  0  0  0  0  0  0  0
   -2.2317   -1.8195   -0.5116 O   0  0  0  0  0  0  0  0  0  0  0  0
   -3.8554   -0.2057    0.1083 C   0  0  0  0  0  0  0  0  0  0  0  0
   -4.7787   -1.3730   -0.1278 C   0  0  0  0  0  0  0  0  0  0  0  0
   -6.1822   -1.0189    0.1290 C   0  0  0  0  0  0  0  0  0  0  0  0
   -7.0958   -0.5120   -0.7735 C   0  0  0  0  0  0  0  0  0  0  0  0
   -8.2764   -0.3161   -0.1588 N   0  0  0  0  0  0  0  0  0  0  0  0
   -8.1095   -0.6944    1.1223 C   0  0  0  0  0  0  0  0  0  0  0  0
   -6.8362   -1.1242    1.3039 N   0  0  0  0  0  0  0  0  0  0  0  0
    0.7867    1.0861    0.3299 C   0  0  0  0  0  0  0  0  0  0  0  0
    0.1883    1.7016    1.2054 O   0  0  0  0  0  0  0  0  0  0  0  0
    2.1081    1.3194   -0.0972 N   0  0  0  0  0  0  0  0  0  0  0  0
    2.8337    2.3989    0.5654 C   0  0  0  0  0  0  0  0  0  0  0  0
    4.1929    2.5002   -0.0838 C   0  0  0  0  0  0  0  0  0  0  0  0
    4.9689    1.2457    0.0488 C   0  0  0  0  0  0  0  0  0  0  0  0
    5.8774    1.0234    1.0648 C   0  0  0  0  0  0  0  0  0  0  0  0
    6.5884   -0.1865    1.1800 C   0  0  0  0  0  0  0  0  0  0  0  0
    6.3822   -1.1828    0.2568 C   0  0  0  0  0  0  0  0  0  0  0  0
    7.0827   -2.4108    0.3404 O   0  0  0  0  0  0  0  0  0  0  0  0
    5.4878   -0.9691   -0.7531 C   0  0  0  0  0  0  0  0  0  0  0  0
    4.7773    0.2369   -0.8671 C   0  0  0  0  0  0  0  0  0  0  0  0
  2  1  1  6
  2  3  1  0
  3  4  1  0
  4  5  2  0
  4  6  1  0
  6  7  1  0
  7  8  1  0
  8  9  2  0
  9 10  1  0
 10 11  1  0
 11 12  2  0
  2 13  1  0
 13 14  2  0
 13 15  1  0
 15 16  1  0
 16 17  1  0
 17 18  1  0
 18 19  2  0
 19 20  1  0
 20 21  2  0
 21 22  1  0
 21 23  1  0
 23 24  2  0
 12  8  1  0
 24 18  1  0
M  END

