
     RDKit          3D

 56 59  0  0  0  0  0  0  0  0999 V2000
   -3.5694   -0.4160    2.0873 C   0  0  0  0  0  0  0  0  0  0  0  0
   -4.4393    0.5687    1.0498 C   0  0  2  0  0  0  0  0  0  0  0  0
   -5.7683   -0.4097    1.1484 C   0  0  0  0  0  0  0  0  0  0  0  0
   -6.7560    0.2407    0.2875 N   0  0  0  0  0  0  0  0  0  0  0  0
   -7.5973    1.1352    0.7257 N   0  0  0  0  0  0  0  0  0  0  0  0
   -8.3815    1.5580   -0.2796 C   0  0  0  0  0  0  0  0  0  0  0  0
   -7.9749    0.8690   -1.3742 N   0  0  0  0  0  0  0  0  0  0  0  0
   -6.9852    0.0772   -0.9936 N   0  0  0  0  0  0  0  0  0  0  0  0
   -3.9118   -0.1451   -0.2533 N   0  0  0  0  0  0  0  0  0  0  0  0
   -2.5644   -0.1570   -0.5073 C   0  0  0  0  0  0  0  0  0  0  0  0
   -2.1114   -0.7593   -1.6080 N   0  0  0  0  0  0  0  0  0  0  0  0
   -0.8147   -0.8232   -1.9415 C   0  0  0  0  0  0  0  0  0  0  0  0
    0.0924   -0.2260   -1.0854 C   0  0  0  0  0  0  0  0  0  0  0  0
    1.4332   -0.2536   -1.3639 C   0  0  0  0  0  0  0  0  0  0  0  0
    2.4178    0.3423   -0.5230 C   0  0  0  0  0  0  0  0  0  0  0  0
    3.6431    0.2207   -0.9446 O   0  0  0  0  0  0  0  0  0  0  0  0
    4.8271   -0.3255   -0.6254 C   0  0  0  0  0  0  0  0  0  0  0  0
    5.2842   -1.3459   -1.5220 C   0  0  0  0  0  0  0  0  0  0  0  0
    6.4442   -2.0254   -1.3949 C   0  0  0  0  0  0  0  0  0  0  0  0
    7.2461   -1.7053   -0.3134 C   0  0  0  0  0  0  0  0  0  0  0  0
    8.4204   -2.4030   -0.1958 F   0  0  0  0  0  0  0  0  0  0  0  0
    6.8585   -0.7394    0.5724 C   0  0  0  0  0  0  0  0  0  0  0  0
    5.6547   -0.0505    0.4189 C   0  0  0  0  0  0  0  0  0  0  0  0
    5.3461    0.9242    1.3245 F   0  0  0  0  0  0  0  0  0  0  0  0
    1.9057    0.9379    0.5747 C   0  0  0  0  0  0  0  0  0  0  0  0
    2.6569    1.5074    1.4037 O   0  0  0  0  0  0  0  0  0  0  0  0
    0.5503    0.9613    0.8497 N   0  0  0  0  0  0  0  0  0  0  0  0
    0.1218    1.6322    2.0622 C   0  0  0  0  0  0  0  0  0  0  0  0
   -0.3462    0.3924    0.0404 C   0  0  0  0  0  0  0  0  0  0  0  0
   -1.6821    0.4176    0.3150 N   0  0  0  0  0  0  0  0  0  0  0  0
    6.5139    1.9366   -1.1609 N   0  0  0  0  0  0  0  0  0  0  0  0
    5.4188    1.9364   -0.2613 C   0  0  0  0  0  0  0  0  0  0  0  0
    4.3029    2.3069   -0.6544 O   0  0  0  0  0  0  0  0  0  0  0  0
    5.6386    1.5000    1.1086 C   0  0  0  0  0  0  0  0  0  0  0  0
    4.4962    1.2892    2.0000 C   0  0  0  0  0  0  0  0  0  0  0  0
    3.4964    0.2511    1.6435 C   0  0  0  0  0  0  0  0  0  0  0  0
    2.8265    0.4651    0.3923 N   0  0  0  0  0  0  0  0  0  0  0  0
    1.8574   -0.4558   -0.0584 C   0  0  0  0  0  0  0  0  0  0  0  0
    1.5831   -1.4285    0.6023 O   0  0  0  0  0  0  0  0  0  0  0  0
    1.1729   -0.1368   -1.4584 C   0  0  2  0  0  0  0  0  0  0  0  0
   -0.0258    0.8401   -0.8818 C   0  0  0  0  0  0  0  0  0  0  0  0
    0.6807    1.9459   -0.2271 C   0  0  0  0  0  0  0  0  0  0  0  0
    1.2396    3.0155   -0.9756 N   0  0  0  0  0  0  0  0  0  0  0  0
    0.7995    1.9580    1.0200 O   0  0  0  0  0  0  0  0  0  0  0  0
    0.3079   -1.4514   -1.5768 N   0  0  0  0  0  0  0  0  0  0  0  0
   -0.7182   -1.6988   -0.7017 C   0  0  0  0  0  0  0  0  0  0  0  0
   -0.9353   -0.8466    0.1823 O   0  0  0  0  0  0  0  0  0  0  0  0
   -1.5226   -2.9232   -0.8114 C   0  0  0  0  0  0  0  0  0  0  0  0
   -2.6375   -3.0449    0.1576 C   0  0  0  0  0  0  0  0  0  0  0  0
   -3.6696   -2.0086    0.1003 C   0  0  0  0  0  0  0  0  0  0  0  0
   -3.5603   -0.8868    0.8851 C   0  0  0  0  0  0  0  0  0  0  0  0
   -4.5624    0.0749    0.8000 C   0  0  0  0  0  0  0  0  0  0  0  0
   -5.6232   -0.1107   -0.0520 C   0  0  0  0  0  0  0  0  0  0  0  0
   -6.5976    0.8699   -0.1065 O   0  0  0  0  0  0  0  0  0  0  0  0
   -5.7362   -1.2268   -0.8358 C   0  0  0  0  0  0  0  0  0  0  0  0
   -4.7456   -2.1708   -0.7470 C   0  0  0  0  0  0  0  0  0  0  0  0
  2  1  1  1
  2  3  1  0
  3  4  1  0
  4  5  1  0
  5  6  2  0
  6  7  1  0
  7  8  2  0
  2  9  1  0
  9 10  1  0
 10 11  2  0
 11 12  1  0
 12 13  2  0
 13 14  1  0
 14 15  2  0
 15 16  1  0
 16 17  1  0
 17 18  2  0
 18 19  1  0
 19 20  2  0
 20 21  1  0
 20 22  1  0
 22 23  2  0
 23 24  1  0
 15 25  1  0
 25 26  2  0
 25 27  1  0
 27 28  1  0
 27 29  1  0
 29 30  2  0
 31 32  1  0
 32 33  2  0
 32 34  1  0
 34 35  1  0
 35 36  1  0
 36 37  1  0
 37 38  1  0
 38 39  2  0
 38 40  1  0
 40 41  1  1
 41 42  1  0
 42 43  1  0
 42 44  2  0
 40 45  1  0
 45 46  1  0
 46 47  2  0
 46 48  1  0
 48 49  1  0
 49 50  1  0
 50 51  2  0
 51 52  1  0
 52 53  2  0
 53 54  1  0
 53 55  1  0
 55 56  2  0
  8  4  1  0
 30 10  1  0
 56 50  1  0
 29 13  1  0
 23 17  1  0
M  END

