
     RDKit          3D

 18 18  0  0  0  0  0  0  0  0999 V2000
   -4.0040    2.3488    1.0089 C   0  0  0  0  0  0  0  0  0  0  0  0
   -2.7737    2.7398    0.2848 C   0  0  0  0  0  0  0  0  0  0  0  0
   -2.0515    1.7685   -0.4539 N   0  0  0  0  0  0  0  0  0  0  0  0
   -1.4944    0.5947    0.1188 C   0  0  0  0  0  0  0  0  0  0  0  0
   -1.6307    0.3435    1.2723 O   0  0  0  0  0  0  0  0  0  0  0  0
   -0.6944   -0.2938   -0.9162 C   0  0  2  0  0  0  0  0  0  0  0  0
   -1.3994   -1.7353   -0.6659 C   0  0  0  0  0  0  0  0  0  0  0  0
   -2.7973   -1.5583   -1.0350 C   0  0  0  0  0  0  0  0  0  0  0  0
   -3.6289   -0.5668   -0.3244 C   0  0  0  0  0  0  0  0  0  0  0  0
   -3.5215   -2.8472   -1.1987 C   0  0  0  0  0  0  0  0  0  0  0  0
    0.5037   -0.6188    0.1257 N   0  0  0  0  0  0  0  0  0  0  0  0
    1.7449   -0.4345   -0.5448 C   0  0  0  0  0  0  0  0  0  0  0  0
    1.9165   -0.1052   -1.6921 O   0  0  0  0  0  0  0  0  0  0  0  0
    2.9655   -0.7279    0.4584 C   0  0  2  0  0  0  0  0  0  0  0  0
    3.0536    0.8789    0.9668 C   0  0  0  0  0  0  0  0  0  0  0  0
    4.5218    0.8202    1.3108 C   0  0  0  0  0  0  0  0  0  0  0  0
    5.1709   -0.1117    0.3323 C   0  0  0  0  0  0  0  0  0  0  0  0
    4.1190   -0.4950   -0.6136 N   0  0  0  0  0  0  0  0  0  0  0  0
  1  2  1  0
  2  3  1  0
  3  4  1  0
  4  5  2  0
  4  6  1  0
  6  7  1  1
  7  8  1  0
  8  9  1  0
  8 10  1  0
  6 11  1  0
 11 12  1  0
 12 13  2  0
 14 12  1  6
 14 15  1  0
 15 16  1  0
 16 17  1  0
 17 18  1  0
 18 14  1  0
M  END

