
     RDKit          3D

 22 21  0  0  0  0  0  0  0  0999 V2000
   -6.1252    0.3774    2.1132 C   0  0  0  0  0  0  0  0  0  0  0  0
   -6.1189   -0.9275    1.3372 C   0  0  0  0  0  0  0  0  0  0  0  0
   -5.2284   -0.5281    0.0259 C   0  0  2  0  0  0  0  0  0  0  0  0
   -5.3495   -2.0283   -0.6422 C   0  0  0  0  0  0  0  0  0  0  0  0
   -3.8044   -0.8551    0.7480 C   0  0  0  0  0  0  0  0  0  0  0  0
   -2.7641   -0.5739   -0.2455 C   0  0  0  0  0  0  0  0  0  0  0  0
   -3.1046   -0.1819   -1.3854 O   0  0  0  0  0  0  0  0  0  0  0  0
   -1.3809   -0.7550    0.1132 N   0  0  0  0  0  0  0  0  0  0  0  0
   -0.4207   -0.4094   -1.0770 C   0  0  1  0  0  0  0  0  0  0  0  0
   -0.8460    1.1933   -1.0995 C   0  0  0  0  0  0  0  0  0  0  0  0
   -0.5085    1.7259    0.2227 C   0  0  0  0  0  0  0  0  0  0  0  0
    0.5163    2.5932    0.5385 O   0  0  0  0  0  1  0  0  0  0  0  0
   -1.2167    1.3663    1.1903 O   0  0  0  0  0  0  0  0  0  0  0  0
    0.9030   -0.2460   -0.2887 C   0  0  0  0  0  0  0  0  0  0  0  0
    0.9197   -0.3870    0.8994 O   0  0  0  0  0  0  0  0  0  0  0  0
    2.0310    0.0637   -1.0078 N   0  0  0  0  0  0  0  0  0  0  0  0
    3.3466    0.2547   -0.4314 C   0  0  0  0  0  0  0  0  0  0  0  0
    4.2108    0.5735   -1.6437 C   0  0  0  0  0  0  0  0  0  0  0  0
    5.6379    0.8294   -1.3422 C   0  0  0  0  0  0  0  0  0  0  0  0
    6.2118   -0.3670   -0.7083 C   0  0  0  0  0  0  0  0  0  0  0  0
    7.5796   -0.3504   -0.3522 N   0  0  0  0  0  0  0  0  0  0  0  0
    5.5111   -1.3677   -0.4910 O   0  0  0  0  0  0  0  0  0  0  0  0
  1  2  1  0
  2  3  1  0
  3  4  1  6
  3  5  1  0
  5  6  1  0
  6  7  2  0
  6  8  1  0
  8  9  1  0
  9 10  1  1
 10 11  1  0
 11 12  1  0
 11 13  2  0
  9 14  1  0
 14 15  2  0
 14 16  1  0
 16 17  1  0
 17 18  1  0
 18 19  1  0
 19 20  1  0
 20 21  1  0
 20 22  2  0
M  RAD  1  12   2
M  END

