
     RDKit          3D

 50 53  0  0  0  0  0  0  0  0999 V2000
   -4.2426    2.7214   -0.0299 C   0  0  0  0  0  0  0  0  0  0  0  0
   -2.7051    2.7773   -0.0053 C   0  0  0  0  0  0  0  0  0  0  0  0
   -2.2825    1.4356    0.2990 N   0  0  0  0  0  0  0  0  0  0  0  0
   -0.8954    1.0580    0.4240 C   0  0  0  0  0  0  0  0  0  0  0  0
   -0.1212    2.0160    0.2343 O   0  0  0  0  0  0  0  0  0  0  0  0
   -0.4316   -0.2557    0.7334 C   0  0  2  0  0  0  0  0  0  0  0  0
   -1.5095   -1.2113    1.2588 C   0  0  0  0  0  0  0  0  0  0  0  0
   -2.5429   -1.3782    0.1953 C   0  0  0  0  0  0  0  0  0  0  0  0
   -3.6650   -2.1491    0.3193 C   0  0  0  0  0  0  0  0  0  0  0  0
   -4.3990   -2.1249   -0.8222 N   0  0  0  0  0  0  0  0  0  0  0  0
   -3.7055   -1.3242   -1.6511 C   0  0  0  0  0  0  0  0  0  0  0  0
   -2.5814   -0.8604   -1.0613 N   0  0  0  0  0  0  0  0  0  0  0  0
    0.8285   -0.6463    0.9988 N   0  0  0  0  0  0  0  0  0  0  0  0
    2.0985   -0.0591    0.9273 C   0  0  0  0  0  0  0  0  0  0  0  0
    2.1498    1.0927    0.5311 O   0  0  0  0  0  0  0  0  0  0  0  0
    3.3424   -0.8338    1.3215 C   0  0  0  0  0  0  0  0  0  0  0  0
    4.5545    0.2176    0.9710 C   0  0  1  0  0  0  0  0  0  0  0  0
    5.7322   -0.8283    1.4561 C   0  0  0  0  0  0  0  0  0  0  0  0
    4.6373   -0.2679   -0.6060 C   0  0  0  0  0  0  0  0  0  0  0  0
    5.7384    0.6204   -1.1417 C   0  0  0  0  0  0  0  0  0  0  0  0
    4.1147   -0.1821   -2.7224 C   0  0  0  0  0  0  0  0  0  0  0  0
    4.6095    0.6940   -1.4021 C   0  0  2  0  0  0  0  0  0  0  0  0
    5.9762   -0.2323   -1.1997 C   0  0  0  0  0  0  0  0  0  0  0  0
    6.5464    0.4400   -0.0252 N   0  0  0  0  0  0  0  0  0  0  0  0
    6.2874    0.1137    1.2298 N   0  0  0  0  0  0  0  0  0  0  0  0
    6.9902    0.9501    2.0196 C   0  0  0  0  0  0  0  0  0  0  0  0
    7.6885    1.7996    1.2349 N   0  0  0  0  0  0  0  0  0  0  0  0
    7.3918    1.4571   -0.0089 N   0  0  0  0  0  0  0  0  0  0  0  0
    3.7663   -0.1705   -0.3931 N   0  0  0  0  0  0  0  0  0  0  0  0
    2.3865   -0.1211   -0.6881 C   0  0  0  0  0  0  0  0  0  0  0  0
    1.9113    0.5882   -1.7097 N   0  0  0  0  0  0  0  0  0  0  0  0
    0.6227    0.6629   -2.0230 C   0  0  0  0  0  0  0  0  0  0  0  0
   -0.2827   -0.0383   -1.2414 C   0  0  0  0  0  0  0  0  0  0  0  0
   -1.6380    0.0027   -1.5210 C   0  0  0  0  0  0  0  0  0  0  0  0
   -2.5114   -0.7055   -0.7248 C   0  0  0  0  0  0  0  0  0  0  0  0
   -3.8578   -0.6329   -1.0449 O   0  0  0  0  0  0  0  0  0  0  0  0
   -4.8071   -0.1416   -0.1616 C   0  0  0  0  0  0  0  0  0  0  0  0
   -5.8334   -0.9637    0.2330 C   0  0  0  0  0  0  0  0  0  0  0  0
   -6.7883   -0.5003    1.1088 C   0  0  0  0  0  0  0  0  0  0  0  0
   -6.7382    0.7859    1.6054 C   0  0  0  0  0  0  0  0  0  0  0  0
   -7.6970    1.2033    2.4650 F   0  0  0  0  0  0  0  0  0  0  0  0
   -5.7011    1.5839    1.1932 C   0  0  0  0  0  0  0  0  0  0  0  0
   -4.7317    1.1467    0.3179 C   0  0  0  0  0  0  0  0  0  0  0  0
   -3.7008    1.9194   -0.1004 F   0  0  0  0  0  0  0  0  0  0  0  0
   -2.0139   -1.4359    0.3286 C   0  0  0  0  0  0  0  0  0  0  0  0
   -2.8266   -2.0792    1.0486 O   0  0  0  0  0  0  0  0  0  0  0  0
   -0.6962   -1.4690    0.5914 N   0  0  0  0  0  0  0  0  0  0  0  0
   -0.1577   -2.2405    1.7063 C   0  0  0  0  0  0  0  0  0  0  0  0
    0.1883   -0.7731   -0.1866 C   0  0  0  0  0  0  0  0  0  0  0  0
    1.5024   -0.8021    0.0702 N   0  0  0  0  0  0  0  0  0  0  0  0
  1  2  1  0
  2  3  1  0
  3  4  1  0
  4  5  2  0
  4  6  1  0
  6  7  1  1
  7  8  1  0
  8  9  2  0
  9 10  1  0
 10 11  1  0
 11 12  2  0
  6 13  1  0
 13 14  1  0
 14 15  2  0
 14 16  1  0
 16 17  1  0
 17 18  1  1
 17 19  1  0
 19 20  1  0
 22 21  1  6
 22 23  1  0
 23 24  1  0
 24 25  1  0
 25 26  2  0
 26 27  1  0
 27 28  2  0
 22 29  1  0
 29 30  1  0
 30 31  2  0
 31 32  1  0
 32 33  2  0
 33 34  1  0
 34 35  2  0
 35 36  1  0
 36 37  1  0
 37 38  2  0
 38 39  1  0
 39 40  2  0
 40 41  1  0
 40 42  1  0
 42 43  2  0
 43 44  1  0
 35 45  1  0
 45 46  2  0
 45 47  1  0
 47 48  1  0
 47 49  1  0
 49 50  2  0
 12  8  1  0
 28 24  1  0
 50 30  1  0
 49 33  1  0
 43 37  1  0
M  END

