
     RDKit          3D

 50 52  0  0  0  0  0  0  0  0999 V2000
    3.7843   -2.8290   -0.4202 C   0  0  0  0  0  0  0  0  0  0  0  0
    4.0728   -1.4037   -0.7855 C   0  0  0  0  0  0  0  0  0  0  0  0
    3.1081   -0.8111   -1.7747 C   0  0  0  0  0  0  0  0  0  0  0  0
    4.0426   -0.5469    0.4654 C   0  0  0  0  0  0  0  0  0  0  0  0
    2.6675   -0.6551    1.0859 C   0  0  0  0  0  0  0  0  0  0  0  0
    1.6323   -0.1997    0.1445 N   0  0  0  0  0  0  0  0  0  0  0  0
    0.3041   -0.2376    0.5981 C   0  0  0  0  0  0  0  0  0  0  0  0
    0.0293   -0.6297    1.7126 O   0  0  0  0  0  0  0  0  0  0  0  0
   -0.8040    0.2539   -0.4210 C   0  0  2  0  0  0  0  0  0  0  0  0
   -0.7151    1.8451    0.1072 C   0  0  0  0  0  0  0  0  0  0  0  0
    0.7307    2.2169   -0.1992 C   0  0  0  0  0  0  0  0  0  0  0  0
    0.9113    3.6203    0.2562 C   0  0  0  0  0  0  0  0  0  0  0  0
    0.2306    4.6533   -0.3798 O   0  0  0  0  0  1  0  0  0  0  0  0
    1.6897    3.8368    1.2268 O   0  0  0  0  0  0  0  0  0  0  0  0
   -2.0505   -0.0284    0.5218 N   0  0  0  0  0  0  0  0  0  0  0  0
   -2.8795   -1.0896    0.1160 C   0  0  0  0  0  0  0  0  0  0  0  0
   -2.6153   -1.7386   -0.9100 O   0  0  0  0  0  0  0  0  0  0  0  0
   -4.0691   -1.4420    0.9026 C   0  0  0  0  0  0  0  0  0  0  0  0
   -4.7802   -2.6265    0.2797 C   0  0  0  0  0  0  0  0  0  0  0  0
   -5.2898   -2.1884   -1.3969 S   0  0  0  0  0  0  0  0  0  0  0  0
    4.5464    0.4946    0.3822 C   0  0  0  0  0  0  0  0  0  0  0  0
    4.4884   -1.0968    0.8688 C   0  0  2  0  0  0  0  0  0  0  0  0
    5.6701   -1.5466   -0.2131 C   0  0  0  0  0  0  0  0  0  0  0  0
    6.8189   -0.7706    0.1502 N   0  0  0  0  0  0  0  0  0  0  0  0
    7.0886    0.4372   -0.3524 N   0  0  0  0  0  0  0  0  0  0  0  0
    8.2323    0.9052    0.1838 C   0  0  0  0  0  0  0  0  0  0  0  0
    8.6516   -0.0616    1.0327 N   0  0  0  0  0  0  0  0  0  0  0  0
    7.7847   -1.0623    0.9965 N   0  0  0  0  0  0  0  0  0  0  0  0
    3.3219   -1.4386   -0.1496 N   0  0  0  0  0  0  0  0  0  0  0  0
    2.1528   -0.6614    0.0846 C   0  0  0  0  0  0  0  0  0  0  0  0
    2.0330    0.2609    1.0531 N   0  0  0  0  0  0  0  0  0  0  0  0
    0.8690    0.9602    1.2029 C   0  0  0  0  0  0  0  0  0  0  0  0
   -0.2100    0.7451    0.3740 C   0  0  0  0  0  0  0  0  0  0  0  0
   -1.4046    1.4268    0.4874 C   0  0  0  0  0  0  0  0  0  0  0  0
   -2.4498    1.1614   -0.3794 C   0  0  0  0  0  0  0  0  0  0  0  0
   -3.6459    1.8318   -0.2794 O   0  0  0  0  0  0  0  0  0  0  0  0
   -4.7889    1.0865   -0.0442 C   0  0  0  0  0  0  0  0  0  0  0  0
   -5.8140    1.1266   -0.9625 C   0  0  0  0  0  0  0  0  0  0  0  0
   -6.9502    0.3616   -0.6903 C   0  0  0  0  0  0  0  0  0  0  0  0
   -7.0404   -0.3982    0.4452 C   0  0  0  0  0  0  0  0  0  0  0  0
   -8.1360   -1.1482    0.7271 F   0  0  0  0  0  0  0  0  0  0  0  0
   -5.9977   -0.4300    1.3646 C   0  0  0  0  0  0  0  0  0  0  0  0
   -4.8761    0.3237    1.0984 C   0  0  0  0  0  0  0  0  0  0  0  0
   -3.8516    0.2949    1.9980 F   0  0  0  0  0  0  0  0  0  0  0  0
   -2.2765    0.1991   -1.3636 C   0  0  0  0  0  0  0  0  0  0  0  0
   -3.2425   -0.0302   -2.1467 O   0  0  0  0  0  0  0  0  0  0  0  0
   -1.0988   -0.4467   -1.4459 N   0  0  0  0  0  0  0  0  0  0  0  0
   -0.9207   -1.4536   -2.4775 C   0  0  0  0  0  0  0  0  0  0  0  0
   -0.0652   -0.2076   -0.6149 C   0  0  0  0  0  0  0  0  0  0  0  0
    1.1112   -0.8631   -0.7088 N   0  0  0  0  0  0  0  0  0  0  0  0
  1  2  1  0
  2  3  1  0
  2  4  1  0
  4  5  1  0
  5  6  1  0
  6  7  1  0
  7  8  2  0
  7  9  1  0
  9 10  1  1
 10 11  1  0
 11 12  1  0
 12 13  1  0
 12 14  2  0
  9 15  1  0
 15 16  1  0
 16 17  2  0
 16 18  1  0
 18 19  1  0
 19 20  1  0
 22 21  1  6
 22 23  1  0
 23 24  1  0
 24 25  1  0
 25 26  2  0
 26 27  1  0
 27 28  2  0
 22 29  1  0
 29 30  1  0
 30 31  2  0
 31 32  1  0
 32 33  2  0
 33 34  1  0
 34 35  2  0
 35 36  1  0
 36 37  1  0
 37 38  2  0
 38 39  1  0
 39 40  2  0
 40 41  1  0
 40 42  1  0
 42 43  2  0
 43 44  1  0
 35 45  1  0
 45 46  2  0
 45 47  1  0
 47 48  1  0
 47 49  1  0
 49 50  2  0
 28 24  1  0
 50 30  1  0
 49 33  1  0
 43 37  1  0
M  RAD  1  13   2
M  END

