
     RDKit          3D

 57 61  0  0  0  0  0  0  0  0999 V2000
    4.7373   -1.8694   -1.6569 C   0  0  0  0  0  0  0  0  0  0  0  0
    5.2731   -1.1602   -0.2671 C   0  0  1  0  0  0  0  0  0  0  0  0
    4.6757    0.3185   -0.6472 C   0  0  0  0  0  0  0  0  0  0  0  0
    5.0832    1.0783    0.5234 N   0  0  0  0  0  0  0  0  0  0  0  0
    6.2544    1.7258    0.6172 N   0  0  0  0  0  0  0  0  0  0  0  0
    6.2936    2.3146    1.8278 C   0  0  0  0  0  0  0  0  0  0  0  0
    5.1456    2.0293    2.4798 N   0  0  0  0  0  0  0  0  0  0  0  0
    4.4374    1.2767    1.6542 N   0  0  0  0  0  0  0  0  0  0  0  0
    4.0543   -1.6158    0.5867 N   0  0  0  0  0  0  0  0  0  0  0  0
    2.7962   -1.2804    0.0600 C   0  0  0  0  0  0  0  0  0  0  0  0
    2.6688   -0.6196   -1.0991 N   0  0  0  0  0  0  0  0  0  0  0  0
    1.4842   -0.3009   -1.6000 C   0  0  0  0  0  0  0  0  0  0  0  0
    0.3640   -0.6785   -0.8758 C   0  0  0  0  0  0  0  0  0  0  0  0
   -0.8842   -0.3679   -1.3593 C   0  0  0  0  0  0  0  0  0  0  0  0
   -2.0186   -0.7280   -0.6651 C   0  0  0  0  0  0  0  0  0  0  0  0
   -3.2366   -0.3761   -1.2231 O   0  0  0  0  0  0  0  0  0  0  0  0
   -4.1570    0.4374   -0.6035 C   0  0  0  0  0  0  0  0  0  0  0  0
   -3.9310    0.9783    0.6525 C   0  0  0  0  0  0  0  0  0  0  0  0
   -4.9066    1.7903    1.2137 C   0  0  0  0  0  0  0  0  0  0  0  0
   -6.0973    2.0724    0.5506 C   0  0  0  0  0  0  0  0  0  0  0  0
   -7.0580    2.8639    1.0877 F   0  0  0  0  0  0  0  0  0  0  0  0
   -6.2858    1.5154   -0.6982 C   0  0  0  0  0  0  0  0  0  0  0  0
   -5.3348    0.7001   -1.2906 C   0  0  0  0  0  0  0  0  0  0  0  0
   -5.5355    0.1611   -2.5175 F   0  0  0  0  0  0  0  0  0  0  0  0
   -1.8778   -1.4000    0.5130 C   0  0  0  0  0  0  0  0  0  0  0  0
   -2.9266   -1.7182    1.1286 O   0  0  0  0  0  0  0  0  0  0  0  0
   -0.6632   -1.7127    1.0018 N   0  0  0  0  0  0  0  0  0  0  0  0
   -0.5059   -2.4245    2.2494 C   0  0  0  0  0  0  0  0  0  0  0  0
    0.4647   -1.3593    0.3200 C   0  0  0  0  0  0  0  0  0  0  0  0
    1.6864   -1.6504    0.7702 N   0  0  0  0  0  0  0  0  0  0  0  0
   -4.4876    5.2363    0.0303 O   0  0  0  0  0  1  0  0  0  0  0  0
   -4.2639    4.0456    0.7103 C   0  0  0  0  0  0  0  0  0  0  0  0
   -4.5547    3.9844    1.9252 O   0  0  0  0  0  0  0  0  0  0  0  0
   -3.6882    2.8757   -0.0048 C   0  0  0  0  0  0  0  0  0  0  0  0
   -3.4941    1.7747    1.0052 C   0  0  0  0  0  0  0  0  0  0  0  0
   -3.0039    0.5867    0.4289 N   0  0  0  0  0  0  0  0  0  0  0  0
   -1.8266    0.3181   -0.2705 C   0  0  0  0  0  0  0  0  0  0  0  0
   -0.9891    1.1255   -0.4901 O   0  0  0  0  0  0  0  0  0  0  0  0
   -1.8149   -1.1983   -0.7066 C   0  0  2  0  0  0  0  0  0  0  0  0
   -1.2043   -1.7715    0.7180 C   0  0  0  0  0  0  0  0  0  0  0  0
   -1.1482   -3.2351    0.4902 C   0  0  0  0  0  0  0  0  0  0  0  0
   -0.7202   -4.1235    1.4288 C   0  0  0  0  0  0  0  0  0  0  0  0
   -0.7740   -5.3650    0.9658 N   0  0  0  0  0  0  0  0  0  0  0  0
   -1.2460   -5.2619   -0.3017 C   0  0  0  0  0  0  0  0  0  0  0  0
   -1.4799   -3.9589   -0.5999 N   0  0  0  0  0  0  0  0  0  0  0  0
   -0.5028   -1.2739   -1.5151 N   0  0  0  0  0  0  0  0  0  0  0  0
    0.7569   -1.1575   -0.9849 C   0  0  0  0  0  0  0  0  0  0  0  0
    0.9246   -0.9591    0.2168 O   0  0  0  0  0  0  0  0  0  0  0  0
    1.8925   -1.2905   -1.9229 C   0  0  0  0  0  0  0  0  0  0  0  0
    3.2246   -1.2644   -1.3327 C   0  0  0  0  0  0  0  0  0  0  0  0
    3.5655    0.0024   -0.6853 C   0  0  0  0  0  0  0  0  0  0  0  0
    3.3332    0.2307    0.6482 C   0  0  0  0  0  0  0  0  0  0  0  0
    3.7190    1.4395    1.1803 C   0  0  0  0  0  0  0  0  0  0  0  0
    4.3217    2.4198    0.4556 C   0  0  0  0  0  0  0  0  0  0  0  0
    4.7300    3.6526    0.9470 O   0  0  0  0  0  0  0  0  0  0  0  0
    4.5563    2.1837   -0.8993 C   0  0  0  0  0  0  0  0  0  0  0  0
    4.1740    0.9836   -1.4364 C   0  0  0  0  0  0  0  0  0  0  0  0
  2  1  1  1
  2  3  1  0
  3  4  1  0
  4  5  1  0
  5  6  2  0
  6  7  1  0
  7  8  2  0
  2  9  1  0
  9 10  1  0
 10 11  2  0
 11 12  1  0
 12 13  2  0
 13 14  1  0
 14 15  2  0
 15 16  1  0
 16 17  1  0
 17 18  2  0
 18 19  1  0
 19 20  2  0
 20 21  1  0
 20 22  1  0
 22 23  2  0
 23 24  1  0
 15 25  1  0
 25 26  2  0
 25 27  1  0
 27 28  1  0
 27 29  1  0
 29 30  2  0
 31 32  1  0
 32 33  2  0
 32 34  1  0
 34 35  1  0
 35 36  1  0
 36 37  1  0
 37 38  2  0
 37 39  1  0
 39 40  1  1
 40 41  1  0
 41 42  2  0
 42 43  1  0
 43 44  1  0
 44 45  2  0
 39 46  1  0
 46 47  1  0
 47 48  2  0
 47 49  1  0
 49 50  1  0
 50 51  1  0
 51 52  2  0
 52 53  1  0
 53 54  2  0
 54 55  1  0
 54 56  1  0
 56 57  2  0
  8  4  1  0
 30 10  1  0
 45 41  1  0
 57 51  1  0
 29 13  1  0
 23 17  1  0
M  RAD  1  31   2
M  END

