
     RDKit          3D

 44 46  0  0  0  0  0  0  0  0999 V2000
   -4.5261    0.3958   -1.0521 C   0  0  0  0  0  0  0  0  0  0  0  0
   -3.4758   -0.3334   -0.3099 C   0  0  0  0  0  0  0  0  0  0  0  0
   -3.1941   -1.5026   -0.6139 O   0  0  0  0  0  0  0  0  0  0  0  0
   -2.7764    0.2293    0.7173 N   0  0  0  0  0  0  0  0  0  0  0  0
   -1.6544   -0.4288    1.5379 C   0  0  1  0  0  0  0  0  0  0  0  0
   -1.6863   -1.9125    0.8362 C   0  0  0  0  0  0  0  0  0  0  0  0
   -0.4505    0.1143    0.6924 C   0  0  0  0  0  0  0  0  0  0  0  0
   -0.6565    0.5596   -0.4407 O   0  0  0  0  0  0  0  0  0  0  0  0
    0.8419    0.1130    1.1840 N   0  0  0  0  0  0  0  0  0  0  0  0
    2.0487    0.5214    0.6619 C   0  0  0  0  0  0  0  0  0  0  0  0
    2.6273   -0.0702   -0.5653 C   0  0  0  0  0  0  0  0  0  0  0  0
    3.9013    0.6015   -0.8314 C   0  0  0  0  0  0  0  0  0  0  0  0
    4.7572    0.0998   -1.8257 N   0  0  0  0  0  0  0  0  0  0  0  0
    4.2437    1.6129   -0.1981 O   0  0  0  0  0  0  0  0  0  0  0  0
   -6.5283    0.8027    1.4782 C   0  0  0  0  0  0  0  0  0  0  0  0
   -5.0568    1.5430    1.3608 C   0  0  2  0  0  0  0  0  0  0  0  0
   -5.1103    1.7601   -0.2657 C   0  0  0  0  0  0  0  0  0  0  0  0
   -5.2276    0.4971   -0.9004 N   0  0  0  0  0  0  0  0  0  0  0  0
   -4.2964   -0.3200   -1.3175 N   0  0  0  0  0  0  0  0  0  0  0  0
   -4.8906   -1.3983   -1.8562 C   0  0  0  0  0  0  0  0  0  0  0  0
   -6.2185   -1.2363   -1.7661 N   0  0  0  0  0  0  0  0  0  0  0  0
   -6.3907   -0.0761   -1.1813 N   0  0  0  0  0  0  0  0  0  0  0  0
   -4.2463    0.2006    1.2875 N   0  0  0  0  0  0  0  0  0  0  0  0
   -2.8651    0.5118    1.1753 C   0  0  0  0  0  0  0  0  0  0  0  0
   -2.3273    1.7275    1.1371 N   0  0  0  0  0  0  0  0  0  0  0  0
   -1.0188    1.9952    1.0308 C   0  0  0  0  0  0  0  0  0  0  0  0
   -0.1166    0.9244    0.9512 C   0  0  0  0  0  0  0  0  0  0  0  0
    1.2263    1.1432    0.8413 C   0  0  0  0  0  0  0  0  0  0  0  0
    2.1321    0.0321    0.7609 C   0  0  0  0  0  0  0  0  0  0  0  0
    3.4318    0.2945    0.6567 O   0  0  0  0  0  0  0  0  0  0  0  0
    4.4973    0.1779   -0.1395 C   0  0  0  0  0  0  0  0  0  0  0  0
    5.0324    1.4318   -0.5806 C   0  0  0  0  0  0  0  0  0  0  0  0
    6.0917    1.5649   -1.3793 C   0  0  0  0  0  0  0  0  0  0  0  0
    6.7588    0.4555   -1.8444 C   0  0  0  0  0  0  0  0  0  0  0  0
    7.8219    0.6085   -2.6485 F   0  0  0  0  0  0  0  0  0  0  0  0
    6.2788   -0.7572   -1.4449 C   0  0  0  0  0  0  0  0  0  0  0  0
    5.1651   -0.9175   -0.6039 C   0  0  0  0  0  0  0  0  0  0  0  0
    4.7927   -2.1723   -0.2510 F   0  0  0  0  0  0  0  0  0  0  0  0
    1.5632   -1.1972    0.8030 C   0  0  0  0  0  0  0  0  0  0  0  0
    2.2338   -2.2867    0.7468 O   0  0  0  0  0  0  0  0  0  0  0  0
    0.2148   -1.3606    0.9131 N   0  0  0  0  0  0  0  0  0  0  0  0
   -0.3257   -2.7129    0.9513 C   0  0  0  0  0  0  0  0  0  0  0  0
   -0.6545   -0.3446    0.9892 C   0  0  0  0  0  0  0  0  0  0  0  0
   -1.9675   -0.5173    1.0963 N   0  0  0  0  0  0  0  0  0  0  0  0
  1  2  1  0
  2  3  2  0
  2  4  1  0
  4  5  1  0
  5  6  1  6
  5  7  1  0
  7  8  2  0
  7  9  1  0
  9 10  1  0
 10 11  1  0
 11 12  1  0
 12 13  1  0
 12 14  2  0
 16 15  1  6
 16 17  1  0
 17 18  1  0
 18 19  1  0
 19 20  2  0
 20 21  1  0
 21 22  2  0
 16 23  1  0
 23 24  1  0
 24 25  2  0
 25 26  1  0
 26 27  2  0
 27 28  1  0
 28 29  2  0
 29 30  1  0
 30 31  1  0
 31 32  2  0
 32 33  1  0
 33 34  2  0
 34 35  1  0
 34 36  1  0
 36 37  2  0
 37 38  1  0
 29 39  1  0
 39 40  2  0
 39 41  1  0
 41 42  1  0
 41 43  1  0
 43 44  2  0
 22 18  1  0
 44 24  1  0
 43 27  1  0
 37 31  1  0
M  END

