
     RDKit          3D

 53 56  0  0  0  0  0  0  0  0999 V2000
   -6.1067   -0.7631   -0.7968 C   0  0  0  0  0  0  0  0  0  0  0  0
   -4.8606   -0.8089    0.2891 C   0  0  2  0  0  0  0  0  0  0  0  0
   -4.8056    0.8372    0.4340 C   0  0  0  0  0  0  0  0  0  0  0  0
   -6.1419    1.1250    0.9217 N   0  0  0  0  0  0  0  0  0  0  0  0
   -6.5476    1.1870    2.1864 N   0  0  0  0  0  0  0  0  0  0  0  0
   -7.8489    1.4774    2.2185 C   0  0  0  0  0  0  0  0  0  0  0  0
   -8.2599    1.5981    0.9508 N   0  0  0  0  0  0  0  0  0  0  0  0
   -7.2060    1.3799    0.1795 N   0  0  0  0  0  0  0  0  0  0  0  0
   -3.7604   -0.8303   -0.8440 N   0  0  0  0  0  0  0  0  0  0  0  0
   -2.4178   -0.8733   -0.3348 C   0  0  0  0  0  0  0  0  0  0  0  0
   -2.1466   -0.8929    0.9820 N   0  0  0  0  0  0  0  0  0  0  0  0
   -0.8589   -0.9338    1.4201 C   0  0  0  0  0  0  0  0  0  0  0  0
    0.1698   -0.9551    0.5075 C   0  0  0  0  0  0  0  0  0  0  0  0
    1.5132   -0.9970    0.8811 C   0  0  0  0  0  0  0  0  0  0  0  0
    2.5164   -1.0173   -0.0585 C   0  0  0  0  0  0  0  0  0  0  0  0
    3.8234   -1.0585    0.3473 O   0  0  0  0  0  0  0  0  0  0  0  0
    4.7641   -0.0856    0.0369 C   0  0  0  0  0  0  0  0  0  0  0  0
    4.3901    0.9995   -0.7242 C   0  0  0  0  0  0  0  0  0  0  0  0
    5.2727    2.0075   -1.0726 C   0  0  0  0  0  0  0  0  0  0  0  0
    6.5607    1.9363   -0.6544 C   0  0  0  0  0  0  0  0  0  0  0  0
    7.4368    2.9193   -0.9897 F   0  0  0  0  0  0  0  0  0  0  0  0
    6.9585    0.8532    0.1123 C   0  0  0  0  0  0  0  0  0  0  0  0
    6.0709   -0.1595    0.4621 C   0  0  0  0  0  0  0  0  0  0  0  0
    6.4686   -1.2223    1.2166 F   0  0  0  0  0  0  0  0  0  0  0  0
    2.1620   -0.9953   -1.3790 C   0  0  0  0  0  0  0  0  0  0  0  0
    3.0469   -1.0129   -2.2562 O   0  0  0  0  0  0  0  0  0  0  0  0
    0.8546   -0.9543   -1.7726 N   0  0  0  0  0  0  0  0  0  0  0  0
    0.4687   -0.9308   -3.1623 C   0  0  0  0  0  0  0  0  0  0  0  0
   -0.1131   -0.9349   -0.8440 C   0  0  0  0  0  0  0  0  0  0  0  0
   -1.4035   -0.8948   -1.1843 N   0  0  0  0  0  0  0  0  0  0  0  0
   -4.8145   -2.6671    2.2948 N   0  0  0  0  0  0  0  0  0  0  0  0
   -3.6516   -2.4628    1.5047 C   0  0  0  0  0  0  0  0  0  0  0  0
   -3.5001   -3.2148    0.5124 O   0  0  0  0  0  0  0  0  0  0  0  0
   -2.6965   -1.4175    1.8576 C   0  0  0  0  0  0  0  0  0  0  0  0
   -1.5150   -1.3242    0.9539 C   0  0  0  0  0  0  0  0  0  0  0  0
   -2.0921   -1.0139   -0.5546 C   0  0  2  0  0  0  0  0  0  0  0  0
   -0.7165   -0.9640   -1.2701 N   0  0  0  0  0  0  0  0  0  0  0  0
    0.4043   -0.4977   -0.5781 C   0  0  0  0  0  0  0  0  0  0  0  0
    0.2286   -0.1393    0.6190 O   0  0  0  0  0  0  0  0  0  0  0  0
    1.7789   -0.4093   -1.1944 C   0  0  0  0  0  0  0  0  0  0  0  0
    2.7599    0.1473   -0.1598 C   0  0  0  0  0  0  0  0  0  0  0  0
    4.0764    0.2072   -0.8224 C   0  0  0  0  0  0  0  0  0  0  0  0
    4.9029   -0.8795   -0.7419 C   0  0  0  0  0  0  0  0  0  0  0  0
    6.1477   -0.9218   -1.3252 C   0  0  0  0  0  0  0  0  0  0  0  0
    6.5597    0.2122   -2.0255 C   0  0  0  0  0  0  0  0  0  0  0  0
    5.7447    1.3229   -2.1221 C   0  0  0  0  0  0  0  0  0  0  0  0
    4.4909    1.3128   -1.5113 C   0  0  0  0  0  0  0  0  0  0  0  0
   -2.2829    0.5613   -0.3342 C   0  0  0  0  0  0  0  0  0  0  0  0
   -1.4180    1.3376   -0.7502 O   0  0  0  0  0  0  0  0  0  0  0  0
   -3.4578    0.9717    0.3385 N   0  0  0  0  0  0  0  0  0  0  0  0
   -3.5998    2.4230    0.5224 C   0  0  0  0  0  0  0  0  0  0  0  0
   -3.6075    3.0149   -0.8767 C   0  0  0  0  0  0  0  0  0  0  0  0
   -3.7418    4.4011   -0.7279 O   0  0  0  0  0  0  0  0  0  0  0  0
  2  1  1  6
  2  3  1  0
  3  4  1  0
  4  5  1  0
  5  6  2  0
  6  7  1  0
  7  8  2  0
  2  9  1  0
  9 10  1  0
 10 11  2  0
 11 12  1  0
 12 13  2  0
 13 14  1  0
 14 15  2  0
 15 16  1  0
 16 17  1  0
 17 18  2  0
 18 19  1  0
 19 20  2  0
 20 21  1  0
 20 22  1  0
 22 23  2  0
 23 24  1  0
 15 25  1  0
 25 26  2  0
 25 27  1  0
 27 28  1  0
 27 29  1  0
 29 30  2  0
 31 32  1  0
 32 33  2  0
 32 34  1  0
 34 35  1  0
 36 35  1  1
 36 37  1  0
 37 38  1  0
 38 39  2  0
 38 40  1  0
 40 41  1  0
 41 42  1  0
 42 43  2  0
 43 44  1  0
 44 45  2  0
 45 46  1  0
 46 47  2  0
 36 48  1  0
 48 49  2  0
 48 50  1  0
 50 51  1  0
 51 52  1  0
 52 53  1  0
  8  4  1  0
 30 10  1  0
 47 42  1  0
 29 13  1  0
 23 17  1  0
M  END

