
     RDKit          3D

 21 20  0  0  0  0  0  0  0  0999 V2000
   -1.5552    4.4277    0.2522 C   0  0  0  0  0  0  0  0  0  0  0  0
   -1.7464    3.0882    0.9331 C   0  0  0  0  0  0  0  0  0  0  0  0
   -3.3122    2.7732    0.7726 C   0  0  2  0  0  0  0  0  0  0  0  0
   -3.2498    1.3504    1.5516 C   0  0  0  0  0  0  0  0  0  0  0  0
   -3.2554    2.2344   -0.7163 C   0  0  0  0  0  0  0  0  0  0  0  0
   -2.5235    1.1544   -1.0248 N   0  0  0  0  0  0  0  0  0  0  0  0
   -1.1770    0.7685   -0.9907 C   0  0  0  0  0  0  0  0  0  0  0  0
   -0.3344    1.5011   -0.6087 O   0  0  0  0  0  0  0  0  0  0  0  0
   -0.9791   -0.7206   -1.5160 C   0  0  2  0  0  0  0  0  0  0  0  0
   -1.3755   -1.4210   -0.0962 C   0  0  0  0  0  0  0  0  0  0  0  0
   -1.2650   -2.9157   -0.3282 C   0  0  0  0  0  0  0  0  0  0  0  0
    0.1231   -3.2935   -0.7305 C   0  0  0  0  0  0  0  0  0  0  0  0
   -2.2851   -3.3084   -1.3547 C   0  0  0  0  0  0  0  0  0  0  0  0
    0.5609   -0.8082   -1.3368 N   0  0  0  0  0  0  0  0  0  0  0  0
    1.1622   -0.6707   -0.1190 C   0  0  0  0  0  0  0  0  0  0  0  0
    0.4960   -0.4687    0.9116 O   0  0  0  0  0  0  0  0  0  0  0  0
    2.6325   -0.7615   -0.0090 C   0  0  0  0  0  0  0  0  0  0  0  0
    3.1141   -0.5818    1.4107 C   0  0  0  0  0  0  0  0  0  0  0  0
    4.6061   -0.6846    1.4503 C   0  0  0  0  0  0  0  0  0  0  0  0
    5.0969   -2.0415    0.9484 C   0  0  0  0  0  0  0  0  0  0  0  0
    5.2667    0.3781    0.6005 C   0  0  0  0  0  0  0  0  0  0  0  0
  1  2  1  0
  2  3  1  0
  3  4  1  1
  3  5  1  0
  5  6  1  0
  6  7  1  0
  7  8  2  0
  7  9  1  0
  9 10  1  1
 10 11  1  0
 11 12  1  0
 11 13  1  0
  9 14  1  0
 14 15  1  0
 15 16  2  0
 15 17  1  0
 17 18  1  0
 18 19  1  0
 19 20  1  0
 19 21  1  0
M  END

