
     RDKit          3D

 20 19  0  0  0  0  0  0  0  0999 V2000
   -4.4634   -2.6213   -1.1885 C   0  0  0  0  0  0  0  0  0  0  0  0
   -4.4345   -1.8458    0.1126 C   0  0  0  0  0  0  0  0  0  0  0  0
   -2.8439   -1.7627    0.5428 C   0  0  2  0  0  0  0  0  0  0  0  0
   -3.1744   -0.9052    1.9113 C   0  0  0  0  0  0  0  0  0  0  0  0
   -2.5786   -0.4376   -0.3838 C   0  0  0  0  0  0  0  0  0  0  0  0
   -1.1475   -0.0877   -0.2082 C   0  0  0  0  0  0  0  0  0  0  0  0
   -0.3740   -0.7414    0.5415 O   0  0  0  0  0  0  0  0  0  0  0  0
   -0.5064    0.9832   -0.8389 N   0  0  0  0  0  0  0  0  0  0  0  0
    0.9955    1.2669   -0.5954 C   0  0  1  0  0  0  0  0  0  0  0  0
    0.9672    0.8481    1.0017 C   0  0  0  0  0  0  0  0  0  0  0  0
   -0.0440    1.8391    1.5411 C   0  0  0  0  0  0  0  0  0  0  0  0
    0.4379    3.2266    1.3060 C   0  0  0  0  0  0  0  0  0  0  0  0
   -0.3961    4.2830    1.7231 N   0  0  0  0  0  0  0  0  0  0  0  0
    1.5433    3.4729    0.7583 O   0  0  0  0  0  0  0  0  0  0  0  0
    1.6669   -0.0079   -1.1782 C   0  0  0  0  0  0  0  0  0  0  0  0
    0.9534   -0.8444   -1.6765 O   0  0  0  0  0  0  0  0  0  0  0  0
    3.0289   -0.2441   -1.1616 N   0  0  0  0  0  0  0  0  0  0  0  0
    3.7157   -1.3954   -1.6787 C   0  0  0  0  0  0  0  0  0  0  0  0
    3.1879   -2.6135   -0.9369 C   0  0  0  0  0  0  0  0  0  0  0  0
    3.4662   -2.4128    0.4083 O   0  0  0  0  0  0  0  0  0  0  0  0
  1  2  1  0
  2  3  1  0
  3  4  1  1
  3  5  1  0
  5  6  1  0
  6  7  2  0
  6  8  1  0
  8  9  1  0
  9 10  1  1
 10 11  1  0
 11 12  1  0
 12 13  1  0
 12 14  2  0
  9 15  1  0
 15 16  2  0
 15 17  1  0
 17 18  1  0
 18 19  1  0
 19 20  1  0
M  END

