
     RDKit          3D

 25 26  0  0  0  0  0  0  0  0999 V2000
    6.9090    1.6108    1.1087 N   0  0  0  0  0  0  0  0  0  0  0  0
    5.8147    0.9192    0.5173 C   0  0  0  0  0  0  0  0  0  0  0  0
    4.9964    1.5998   -0.1524 O   0  0  0  0  0  0  0  0  0  0  0  0
    5.6579   -0.5404    0.6913 C   0  0  0  0  0  0  0  0  0  0  0  0
    4.4811   -1.1122   -0.0217 C   0  0  0  0  0  0  0  0  0  0  0  0
    3.1707   -0.5048    0.4442 C   0  0  0  0  0  0  0  0  0  0  0  0
    2.0512   -1.0874   -0.2708 N   0  0  0  0  0  0  0  0  0  0  0  0
    0.7079   -0.7509   -0.0869 C   0  0  0  0  0  0  0  0  0  0  0  0
    0.3781    0.0949    0.7253 O   0  0  0  0  0  0  0  0  0  0  0  0
   -0.3538   -1.5148   -0.9772 C   0  0  2  0  0  0  0  0  0  0  0  0
   -0.1994   -0.5602   -2.3210 C   0  0  0  0  0  0  0  0  0  0  0  0
   -0.5406    0.8054   -1.9479 C   0  0  0  0  0  0  0  0  0  0  0  0
   -1.8420    1.2732   -2.0344 C   0  0  0  0  0  0  0  0  0  0  0  0
   -2.1538    2.5889   -1.6752 C   0  0  0  0  0  0  0  0  0  0  0  0
   -1.2010    3.4493   -1.2322 C   0  0  0  0  0  0  0  0  0  0  0  0
    0.0925    3.0086   -1.1385 C   0  0  0  0  0  0  0  0  0  0  0  0
    0.3958    1.7106   -1.4937 C   0  0  0  0  0  0  0  0  0  0  0  0
   -1.6549   -0.7868   -0.4484 N   0  0  0  0  0  0  0  0  0  0  0  0
   -2.5893   -1.6033    0.2030 C   0  0  0  0  0  0  0  0  0  0  0  0
   -2.3818   -2.7998    0.3398 O   0  0  0  0  0  0  0  0  0  0  0  0
   -3.9248   -0.9271    0.7566 C   0  0  2  0  0  0  0  0  0  0  0  0
   -3.2437   -0.5277    2.2429 C   0  0  0  0  0  0  0  0  0  0  0  0
   -4.5759   -0.5459    2.9730 C   0  0  0  0  0  0  0  0  0  0  0  0
   -5.4339   -1.5486    2.2824 C   0  0  0  0  0  0  0  0  0  0  0  0
   -4.5604   -2.2506    1.3558 N   0  0  0  0  0  0  0  0  0  0  0  0
  1  2  1  0
  2  3  2  0
  2  4  1  0
  4  5  1  0
  5  6  1  0
  6  7  1  0
  7  8  1  0
  8  9  2  0
  8 10  1  0
 10 11  1  6
 11 12  1  0
 12 13  2  0
 13 14  1  0
 14 15  2  0
 15 16  1  0
 16 17  2  0
 10 18  1  0
 18 19  1  0
 19 20  2  0
 21 19  1  6
 21 22  1  0
 22 23  1  0
 23 24  1  0
 24 25  1  0
 17 12  1  0
 25 21  1  0
M  END

