
     RDKit          3D

 50 52  0  0  0  0  0  0  0  0999 V2000
    6.2029   -0.4391    1.2153 C   0  0  0  0  0  0  0  0  0  0  0  0
    5.5802    0.0506   -0.0740 C   0  0  0  0  0  0  0  0  0  0  0  0
    4.0818    0.5205    0.5042 C   0  0  2  0  0  0  0  0  0  0  0  0
    3.7857   -1.0377    1.0125 C   0  0  0  0  0  0  0  0  0  0  0  0
    3.3625    0.2830   -0.9406 C   0  0  0  0  0  0  0  0  0  0  0  0
    1.9871    0.6335   -0.8274 N   0  0  0  0  0  0  0  0  0  0  0  0
    0.9778    0.1197   -0.0280 C   0  0  0  0  0  0  0  0  0  0  0  0
    1.1574   -0.7727    0.7417 O   0  0  0  0  0  0  0  0  0  0  0  0
   -0.4318    0.8437   -0.2479 C   0  0  2  0  0  0  0  0  0  0  0  0
   -0.1169    2.0416    0.8556 C   0  0  0  0  0  0  0  0  0  0  0  0
   -1.3300    2.8899    0.8412 C   0  0  0  0  0  0  0  0  0  0  0  0
   -1.2907    3.9894    1.7058 O   0  0  0  0  0  1  0  0  0  0  0  0
   -2.2979    2.6321    0.1126 O   0  0  0  0  0  0  0  0  0  0  0  0
   -1.2693   -0.0096    0.7907 N   0  0  0  0  0  0  0  0  0  0  0  0
   -2.1223   -0.8959    0.0894 C   0  0  0  0  0  0  0  0  0  0  0  0
   -2.1401   -0.9249   -1.1394 O   0  0  0  0  0  0  0  0  0  0  0  0
   -3.0366   -1.8338    0.8193 C   0  0  0  0  0  0  0  0  0  0  0  0
   -3.8156   -2.6525   -0.1506 C   0  0  0  0  0  0  0  0  0  0  0  0
   -4.7598   -3.6185    0.5168 C   0  0  0  0  0  0  0  0  0  0  0  0
   -4.5244   -1.8192   -1.1824 C   0  0  0  0  0  0  0  0  0  0  0  0
    5.4096   -1.7279    1.9489 C   0  0  0  0  0  0  0  0  0  0  0  0
    3.8934   -1.7378    1.2764 C   0  0  2  0  0  0  0  0  0  0  0  0
    4.4895   -1.7169   -0.2642 C   0  0  0  0  0  0  0  0  0  0  0  0
    5.2733   -0.5404   -0.4301 N   0  0  0  0  0  0  0  0  0  0  0  0
    6.5692   -0.5268   -0.1652 N   0  0  0  0  0  0  0  0  0  0  0  0
    7.0819    0.6841   -0.3970 C   0  0  0  0  0  0  0  0  0  0  0  0
    6.0660    1.4464   -0.8206 N   0  0  0  0  0  0  0  0  0  0  0  0
    4.9644    0.6752   -0.8337 N   0  0  0  0  0  0  0  0  0  0  0  0
    3.7265   -0.1795    1.4173 N   0  0  0  0  0  0  0  0  0  0  0  0
    2.4980    0.3050    0.9404 C   0  0  0  0  0  0  0  0  0  0  0  0
    2.2253    1.6198    1.0010 N   0  0  0  0  0  0  0  0  0  0  0  0
    1.0377    2.1181    0.5440 C   0  0  0  0  0  0  0  0  0  0  0  0
    0.1125    1.2440    0.0141 C   0  0  0  0  0  0  0  0  0  0  0  0
   -1.1211    1.6550   -0.4753 C   0  0  0  0  0  0  0  0  0  0  0  0
   -2.0326    0.7582   -1.0023 C   0  0  0  0  0  0  0  0  0  0  0  0
   -3.2735    1.1369   -1.4993 O   0  0  0  0  0  0  0  0  0  0  0  0
   -4.3873    0.5820   -0.8862 C   0  0  0  0  0  0  0  0  0  0  0  0
   -5.2425   -0.1702   -1.6480 C   0  0  0  0  0  0  0  0  0  0  0  0
   -6.3370   -0.7039   -1.0021 C   0  0  0  0  0  0  0  0  0  0  0  0
   -6.5747   -0.5032    0.3343 C   0  0  0  0  0  0  0  0  0  0  0  0
   -7.6679   -1.0420    0.9577 F   0  0  0  0  0  0  0  0  0  0  0  0
   -5.6827    0.2613    1.0529 C   0  0  0  0  0  0  0  0  0  0  0  0
   -4.5904    0.8065    0.4557 C   0  0  0  0  0  0  0  0  0  0  0  0
   -3.6770    1.5720    1.1261 F   0  0  0  0  0  0  0  0  0  0  0  0
   -1.6671   -0.5632   -1.0227 C   0  0  0  0  0  0  0  0  0  0  0  0
   -2.4733   -1.4069   -1.4958 O   0  0  0  0  0  0  0  0  0  0  0  0
   -0.4730   -0.9972   -0.5540 N   0  0  0  0  0  0  0  0  0  0  0  0
   -0.1612   -2.4159   -0.6116 C   0  0  0  0  0  0  0  0  0  0  0  0
    0.4163   -0.1003   -0.0368 C   0  0  0  0  0  0  0  0  0  0  0  0
    1.5976   -0.5324    0.4265 N   0  0  0  0  0  0  0  0  0  0  0  0
  1  2  1  0
  2  3  1  0
  3  4  1  1
  3  5  1  0
  5  6  1  0
  6  7  1  0
  7  8  2  0
  7  9  1  0
  9 10  1  1
 10 11  1  0
 11 12  1  0
 11 13  2  0
  9 14  1  0
 14 15  1  0
 15 16  2  0
 15 17  1  0
 17 18  1  0
 18 19  1  0
 18 20  1  0
 22 21  1  1
 22 23  1  0
 23 24  1  0
 24 25  1  0
 25 26  2  0
 26 27  1  0
 27 28  2  0
 22 29  1  0
 29 30  1  0
 30 31  2  0
 31 32  1  0
 32 33  2  0
 33 34  1  0
 34 35  2  0
 35 36  1  0
 36 37  1  0
 37 38  2  0
 38 39  1  0
 39 40  2  0
 40 41  1  0
 40 42  1  0
 42 43  2  0
 43 44  1  0
 35 45  1  0
 45 46  2  0
 45 47  1  0
 47 48  1  0
 47 49  1  0
 49 50  2  0
 28 24  1  0
 50 30  1  0
 49 33  1  0
 43 37  1  0
M  RAD  1  12   2
M  END

