
     RDKit          3D

 51 53  0  0  0  0  0  0  0  0999 V2000
   -5.7829    2.0988    2.1318 C   0  0  0  0  0  0  0  0  0  0  0  0
   -4.5565    2.9050    1.9206 C   0  0  0  0  0  0  0  0  0  0  0  0
   -3.6332    2.2473    0.7761 C   0  0  2  0  0  0  0  0  0  0  0  0
   -4.7707    2.3520   -0.3912 C   0  0  0  0  0  0  0  0  0  0  0  0
   -3.9916    0.7190    1.1556 C   0  0  0  0  0  0  0  0  0  0  0  0
   -3.2012   -0.0102    0.1806 N   0  0  0  0  0  0  0  0  0  0  0  0
   -1.8037    0.2338    0.2766 C   0  0  0  0  0  0  0  0  0  0  0  0
   -1.3007    0.9584    1.0704 O   0  0  0  0  0  0  0  0  0  0  0  0
   -1.0238   -0.6122   -0.8336 C   0  0  1  0  0  0  0  0  0  0  0  0
    0.3906   -0.1666   -0.4082 N   0  0  0  0  0  0  0  0  0  0  0  0
    1.5625   -0.4520   -1.0089 C   0  0  0  0  0  0  0  0  0  0  0  0
    1.6128   -1.1429   -2.0175 O   0  0  0  0  0  0  0  0  0  0  0  0
    2.8229    0.0581   -0.4706 C   0  0  0  0  0  0  0  0  0  0  0  0
    3.9334   -0.4977   -1.3272 C   0  0  0  0  0  0  0  0  0  0  0  0
    5.2648    0.0133   -0.8200 C   0  0  0  0  0  0  0  0  0  0  0  0
    5.3663   -0.4593    0.5815 C   0  0  0  0  0  0  0  0  0  0  0  0
    6.4830   -0.0473    1.2915 O   0  0  0  0  0  1  0  0  0  0  0  0
    4.5247   -1.1757    1.1194 O   0  0  0  0  0  0  0  0  0  0  0  0
   -1.1487   -2.0467   -0.0945 C   0  0  0  0  0  0  0  0  0  0  0  0
   -0.5280   -2.1204    1.2255 C   0  0  0  0  0  0  0  0  0  0  0  0
   -0.2200   -2.8546   -0.9795 C   0  0  0  0  0  0  0  0  0  0  0  0
    3.4517    1.2535   -1.8587 C   0  0  0  0  0  0  0  0  0  0  0  0
    4.1918    0.7226   -0.4716 C   0  0  2  0  0  0  0  0  0  0  0  0
    5.6699    0.5844   -1.2252 C   0  0  0  0  0  0  0  0  0  0  0  0
    6.4715    0.1104   -0.1085 N   0  0  0  0  0  0  0  0  0  0  0  0
    6.6887   -1.1380    0.2479 N   0  0  0  0  0  0  0  0  0  0  0  0
    7.4746   -1.1370    1.3204 C   0  0  0  0  0  0  0  0  0  0  0  0
    7.7326    0.1416    1.6112 N   0  0  0  0  0  0  0  0  0  0  0  0
    7.1168    0.8811    0.7354 N   0  0  0  0  0  0  0  0  0  0  0  0
    3.8139   -0.7854   -0.7382 N   0  0  0  0  0  0  0  0  0  0  0  0
    2.4078   -0.9657   -0.8047 C   0  0  0  0  0  0  0  0  0  0  0  0
    1.8671   -2.1971   -1.0284 N   0  0  0  0  0  0  0  0  0  0  0  0
    0.5404   -2.3899   -1.0950 C   0  0  0  0  0  0  0  0  0  0  0  0
   -0.3114   -1.3231   -0.9348 C   0  0  0  0  0  0  0  0  0  0  0  0
   -1.6891   -1.4320   -0.9884 C   0  0  0  0  0  0  0  0  0  0  0  0
   -2.4753   -0.3065   -0.8166 C   0  0  0  0  0  0  0  0  0  0  0  0
   -3.8416   -0.3544   -0.8595 O   0  0  0  0  0  0  0  0  0  0  0  0
   -4.6346    0.0384    0.2477 C   0  0  0  0  0  0  0  0  0  0  0  0
   -4.0558    0.4814    1.4035 C   0  0  0  0  0  0  0  0  0  0  0  0
   -4.8367    0.8559    2.4607 C   0  0  0  0  0  0  0  0  0  0  0  0
   -6.2079    0.7884    2.3655 C   0  0  0  0  0  0  0  0  0  0  0  0
   -6.9228    1.1758    3.4532 F   0  0  0  0  0  0  0  0  0  0  0  0
   -6.8004    0.3410    1.1984 C   0  0  0  0  0  0  0  0  0  0  0  0
   -6.0058   -0.0294    0.1515 C   0  0  0  0  0  0  0  0  0  0  0  0
   -6.5456   -0.4830   -1.0355 F   0  0  0  0  0  0  0  0  0  0  0  0
   -1.8734    0.9152   -0.5930 C   0  0  0  0  0  0  0  0  0  0  0  0
   -2.5479    1.9651   -0.4312 O   0  0  0  0  0  0  0  0  0  0  0  0
   -0.5351    1.0292   -0.5396 N   0  0  0  0  0  0  0  0  0  0  0  0
    0.0896    2.3334   -0.3014 C   0  0  0  0  0  0  0  0  0  0  0  0
    0.2149   -0.0733   -0.7084 C   0  0  0  0  0  0  0  0  0  0  0  0
    1.5521    0.0296   -0.6569 N   0  0  0  0  0  0  0  0  0  0  0  0
  1  2  1  0
  2  3  1  0
  3  4  1  6
  3  5  1  0
  5  6  1  0
  6  7  1  0
  7  8  2  0
  7  9  1  0
  9 10  1  1
 10 11  1  0
 11 12  2  0
 11 13  1  0
 13 14  1  0
 14 15  1  0
 15 16  1  0
 16 17  1  0
 16 18  2  0
  9 19  1  0
 19 20  1  0
 19 21  1  0
 23 22  1  6
 23 24  1  0
 24 25  1  0
 25 26  1  0
 26 27  2  0
 27 28  1  0
 28 29  2  0
 23 30  1  0
 30 31  1  0
 31 32  2  0
 32 33  1  0
 33 34  2  0
 34 35  1  0
 35 36  2  0
 36 37  1  0
 37 38  1  0
 38 39  2  0
 39 40  1  0
 40 41  2  0
 41 42  1  0
 41 43  1  0
 43 44  2  0
 44 45  1  0
 36 46  1  0
 46 47  2  0
 46 48  1  0
 48 49  1  0
 48 50  1  0
 50 51  2  0
 29 25  1  0
 51 31  1  0
 50 34  1  0
 44 38  1  0
M  RAD  1  17   2
M  END

