
     RDKit          3D

 51 54  0  0  0  0  0  0  0  0999 V2000
   -3.6302    2.0654   -1.7949 C   0  0  0  0  0  0  0  0  0  0  0  0
   -4.6077    0.7879   -1.4125 C   0  0  2  0  0  0  0  0  0  0  0  0
   -4.0132    0.6344    0.1122 C   0  0  0  0  0  0  0  0  0  0  0  0
   -4.7585   -0.4813    0.6712 N   0  0  0  0  0  0  0  0  0  0  0  0
   -4.3810   -1.7442    0.5920 N   0  0  0  0  0  0  0  0  0  0  0  0
   -5.2755   -2.5322    1.2014 C   0  0  0  0  0  0  0  0  0  0  0  0
   -6.2276   -1.6913    1.6626 N   0  0  0  0  0  0  0  0  0  0  0  0
   -5.8860   -0.4603    1.3261 N   0  0  0  0  0  0  0  0  0  0  0  0
   -3.6674   -0.2781   -2.0554 N   0  0  0  0  0  0  0  0  0  0  0  0
   -2.3321   -0.2549   -1.6204 C   0  0  0  0  0  0  0  0  0  0  0  0
   -1.4082   -1.1306   -2.0945 N   0  0  0  0  0  0  0  0  0  0  0  0
   -0.1426   -1.0760   -1.6632 C   0  0  0  0  0  0  0  0  0  0  0  0
    0.2749   -0.1584   -0.7459 C   0  0  0  0  0  0  0  0  0  0  0  0
    1.5499   -0.0556   -0.2703 C   0  0  0  0  0  0  0  0  0  0  0  0
    1.8549    0.9175    0.6607 C   0  0  0  0  0  0  0  0  0  0  0  0
    3.1375    1.0314    1.1482 O   0  0  0  0  0  0  0  0  0  0  0  0
    4.1323    0.1727    0.7103 C   0  0  0  0  0  0  0  0  0  0  0  0
    4.7913   -0.6392    1.6049 C   0  0  0  0  0  0  0  0  0  0  0  0
    5.7867   -1.4983    1.1665 C   0  0  0  0  0  0  0  0  0  0  0  0
    6.1445   -1.5692   -0.1509 C   0  0  0  0  0  0  0  0  0  0  0  0
    7.1186   -2.4047   -0.6054 F   0  0  0  0  0  0  0  0  0  0  0  0
    5.4777   -0.7513   -1.0389 C   0  0  0  0  0  0  0  0  0  0  0  0
    4.4818    0.1165   -0.6406 C   0  0  0  0  0  0  0  0  0  0  0  0
    3.8149    0.9226   -1.4706 F   0  0  0  0  0  0  0  0  0  0  0  0
    0.8914    1.7750    1.1071 C   0  0  0  0  0  0  0  0  0  0  0  0
    1.1578    2.6684    1.9577 O   0  0  0  0  0  0  0  0  0  0  0  0
   -0.3525    1.6688    0.6380 N   0  0  0  0  0  0  0  0  0  0  0  0
   -1.3544    2.5990    1.1353 C   0  0  0  0  0  0  0  0  0  0  0  0
   -0.6635    0.7358   -0.2603 C   0  0  0  0  0  0  0  0  0  0  0  0
   -1.9140    0.6303   -0.7308 N   0  0  0  0  0  0  0  0  0  0  0  0
   -0.1516    0.9698   -0.1970 C   0  0  0  0  0  0  0  0  0  0  0  0
   -0.8651   -0.3106   -1.0233 C   0  0  2  0  0  0  0  0  0  0  0  0
   -2.0095   -0.4466    0.0562 N   0  0  0  0  0  0  0  0  0  0  0  0
   -3.1251    0.2656   -0.4036 C   0  0  0  0  0  0  0  0  0  0  0  0
   -3.1381    0.8571   -1.4639 O   0  0  0  0  0  0  0  0  0  0  0  0
   -4.4523    0.2967    0.5183 C   0  0  2  0  0  0  0  0  0  0  0  0
   -5.3857   -0.4070   -0.7047 C   0  0  0  0  0  0  0  0  0  0  0  0
   -6.6808    0.2108   -0.2193 C   0  0  0  0  0  0  0  0  0  0  0  0
   -6.2811    1.6518   -0.0555 C   0  0  0  0  0  0  0  0  0  0  0  0
   -4.8859    1.7722    0.0305 N   0  0  0  0  0  0  0  0  0  0  0  0
    0.1154   -1.3944   -0.4484 C   0  0  0  0  0  0  0  0  0  0  0  0
   -0.1150   -1.9896    0.5678 O   0  0  0  0  0  0  0  0  0  0  0  0
    1.2355   -1.5528   -1.2499 N   0  0  0  0  0  0  0  0  0  0  0  0
    2.2706   -2.4676   -0.9106 C   0  0  0  0  0  0  0  0  0  0  0  0
    2.8848   -2.0482    0.4261 C   0  0  0  0  0  0  0  0  0  0  0  0
    3.4515   -0.6397    0.3192 C   0  0  0  0  0  0  0  0  0  0  0  0
    4.5087   -0.5638   -0.7484 C   0  0  0  0  0  0  0  0  0  0  0  0
    5.0094    0.7704   -0.8321 N   0  0  0  0  0  0  0  0  0  0  0  0
    5.6487    1.4024    0.2453 C   0  0  0  0  0  0  0  0  0  0  0  0
    6.1109    2.7450    0.0468 N   0  0  0  0  0  0  0  0  0  0  0  0
    5.8547    0.8785    1.4011 N   0  0  0  0  0  4  0  0  0  0  0  0
  2  1  1  6
  2  3  1  0
  3  4  1  0
  4  5  1  0
  5  6  2  0
  6  7  1  0
  7  8  2  0
  2  9  1  0
  9 10  1  0
 10 11  2  0
 11 12  1  0
 12 13  2  0
 13 14  1  0
 14 15  2  0
 15 16  1  0
 16 17  1  0
 17 18  2  0
 18 19  1  0
 19 20  2  0
 20 21  1  0
 20 22  1  0
 22 23  2  0
 23 24  1  0
 15 25  1  0
 25 26  2  0
 25 27  1  0
 27 28  1  0
 27 29  1  0
 29 30  2  0
 32 31  1  1
 32 33  1  0
 33 34  1  0
 34 35  2  0
 36 34  1  6
 36 37  1  0
 37 38  1  0
 38 39  1  0
 39 40  1  0
 32 41  1  0
 41 42  2  0
 41 43  1  0
 43 44  1  0
 44 45  1  0
 45 46  1  0
 46 47  1  0
 47 48  1  0
 48 49  1  0
 49 50  1  0
 49 51  2  0
  8  4  1  0
 30 10  1  0
 40 36  1  0
 29 13  1  0
 23 17  1  0
M  CHG  1  51   1
M  END

