
     RDKit          3D

 29 31  0  0  0  0  0  0  0  0999 V2000
    0.9535    6.6204    0.7361 C   0  0  0  0  0  0  0  0  0  0  0  0
    2.0813    5.4434    0.1975 S   0  0  0  0  0  0  0  0  0  0  0  0
    1.7595    3.7140    0.1008 C   0  0  0  0  0  0  0  0  0  0  0  0
    1.3131    3.1195   -1.1676 C   0  0  0  0  0  0  0  0  0  0  0  0
    1.6370    1.5728   -1.2097 C   0  0  2  0  0  0  0  0  0  0  0  0
    0.9099    1.0151   -0.0454 N   0  0  0  0  0  0  0  0  0  0  0  0
   -0.4625    0.6821   -0.5052 C   0  0  0  0  0  0  0  0  0  0  0  0
   -0.8411    1.0327   -1.5802 O   0  0  0  0  0  0  0  0  0  0  0  0
   -1.2784   -0.1091    0.5852 C   0  0  0  0  0  0  0  0  0  0  0  0
   -2.6279    0.1257    0.6489 C   0  0  0  0  0  0  0  0  0  0  0  0
   -3.7158   -0.3612   -0.1136 C   0  0  0  0  0  0  0  0  0  0  0  0
   -4.0821   -0.6727   -1.3458 C   0  0  0  0  0  0  0  0  0  0  0  0
   -5.0751   -1.4084   -1.5424 N   0  0  0  0  0  0  0  0  0  0  0  0
   -5.5870   -1.6809   -0.2722 C   0  0  0  0  0  0  0  0  0  0  0  0
   -6.6857   -2.2877    0.2063 C   0  0  0  0  0  0  0  0  0  0  0  0
   -7.1043   -2.3831    1.4991 C   0  0  0  0  0  0  0  0  0  0  0  0
   -6.2316   -1.7421    2.3921 C   0  0  0  0  0  0  0  0  0  0  0  0
   -5.1447   -1.1063    1.9722 C   0  0  0  0  0  0  0  0  0  0  0  0
   -4.7900   -1.0450    0.6483 C   0  0  0  0  0  0  0  0  0  0  0  0
    3.0870    1.5955   -0.4114 C   0  0  0  0  0  0  0  0  0  0  0  0
    3.7928    2.5801   -0.4598 O   0  0  0  0  0  0  0  0  0  0  0  0
    3.3712    0.3758    0.2733 N   0  0  0  0  0  0  0  0  0  0  0  0
    4.5305    0.2475    1.1281 C   0  0  0  0  0  0  0  0  0  0  0  0
    4.5816   -1.1855    1.5479 C   0  0  0  0  0  0  0  0  0  0  0  0
    4.8546   -2.0685    0.3696 C   0  0  0  0  0  0  0  0  0  0  0  0
    5.1461   -3.4192    0.5719 C   0  0  0  0  0  0  0  0  0  0  0  0
    5.4079   -3.9086   -0.6324 N   0  0  0  0  0  0  0  0  0  0  0  0
    5.2941   -2.9534   -1.5522 C   0  0  0  0  0  0  0  0  0  0  0  0
    4.9062   -1.7925   -0.9246 N   0  0  0  0  0  0  0  0  0  0  0  0
  1  2  1  0
  2  3  1  0
  3  4  1  0
  5  4  1  1
  5  6  1  0
  6  7  1  0
  7  8  2  0
  7  9  1  0
  9 10  1  0
 10 11  1  0
 11 12  2  0
 12 13  1  0
 13 14  1  0
 14 15  2  0
 15 16  1  0
 16 17  2  0
 17 18  1  0
 18 19  2  0
  5 20  1  0
 20 21  2  0
 20 22  1  0
 22 23  1  0
 23 24  1  0
 24 25  1  0
 25 26  2  0
 26 27  1  0
 27 28  1  0
 28 29  2  0
 19 11  1  0
 29 25  1  0
 19 14  1  0
M  END

