
     RDKit          3D

 51 53  0  0  0  0  0  0  0  0999 V2000
    2.9989   -2.1062   -0.7162 C   0  0  0  0  0  0  0  0  0  0  0  0
    4.1081   -0.8495   -0.8335 C   0  0  2  0  0  0  0  0  0  0  0  0
    5.2824   -1.7799   -0.0819 C   0  0  0  0  0  0  0  0  0  0  0  0
    6.4327   -0.9208   -0.0315 N   0  0  0  0  0  0  0  0  0  0  0  0
    6.6630   -0.1053    1.0048 N   0  0  0  0  0  0  0  0  0  0  0  0
    7.7942    0.5795    0.7992 C   0  0  0  0  0  0  0  0  0  0  0  0
    8.2539    0.1613   -0.3951 N   0  0  0  0  0  0  0  0  0  0  0  0
    7.4185   -0.7435   -0.8798 N   0  0  0  0  0  0  0  0  0  0  0  0
    3.6489   -0.1876    0.5320 N   0  0  0  0  0  0  0  0  0  0  0  0
    2.2983    0.2125    0.5942 C   0  0  0  0  0  0  0  0  0  0  0  0
    1.9151    0.7731    1.7549 N   0  0  0  0  0  0  0  0  0  0  0  0
    0.6580    1.2079    1.9723 C   0  0  0  0  0  0  0  0  0  0  0  0
   -0.2376    1.0560    0.9471 C   0  0  0  0  0  0  0  0  0  0  0  0
   -1.5437    1.4892    1.1255 C   0  0  0  0  0  0  0  0  0  0  0  0
   -2.4007    1.3148    0.0704 C   0  0  0  0  0  0  0  0  0  0  0  0
   -3.7054    1.7321    0.2090 O   0  0  0  0  0  0  0  0  0  0  0  0
   -4.6997    0.7563    0.0733 C   0  0  0  0  0  0  0  0  0  0  0  0
   -5.6475    0.8833   -0.9079 C   0  0  0  0  0  0  0  0  0  0  0  0
   -6.6244   -0.1040   -1.0183 C   0  0  0  0  0  0  0  0  0  0  0  0
   -6.6401   -1.1823   -0.1640 C   0  0  0  0  0  0  0  0  0  0  0  0
   -7.5755   -2.1698   -0.2357 F   0  0  0  0  0  0  0  0  0  0  0  0
   -5.6536   -1.2719    0.8229 C   0  0  0  0  0  0  0  0  0  0  0  0
   -4.6859   -0.3041    0.9404 C   0  0  0  0  0  0  0  0  0  0  0  0
   -3.7263   -0.3877    1.8977 F   0  0  0  0  0  0  0  0  0  0  0  0
   -2.0017    0.7385   -1.1191 C   0  0  0  0  0  0  0  0  0  0  0  0
   -2.7976    0.5872   -2.0720 O   0  0  0  0  0  0  0  0  0  0  0  0
   -0.7304    0.3298   -1.2599 N   0  0  0  0  0  0  0  0  0  0  0  0
   -0.3353   -0.2757   -2.5266 C   0  0  0  0  0  0  0  0  0  0  0  0
    0.1278    0.4880   -0.2452 C   0  0  0  0  0  0  0  0  0  0  0  0
    1.4057    0.0790   -0.3818 N   0  0  0  0  0  0  0  0  0  0  0  0
   -5.2399    0.7982    2.1837 N   0  0  0  0  0  0  0  0  0  0  0  0
   -5.3876    0.3063    0.8379 C   0  0  0  0  0  0  0  0  0  0  0  0
   -6.4738    0.7454    0.2237 O   0  0  0  0  0  0  0  0  0  0  0  0
   -4.4394   -0.5513    0.2176 C   0  0  0  0  0  0  0  0  0  0  0  0
   -4.3446   -0.3520   -1.3066 C   0  0  0  0  0  0  0  0  0  0  0  0
   -3.2002   -1.3791   -1.7079 C   0  0  0  0  0  0  0  0  0  0  0  0
   -2.0595   -1.0145   -0.9880 N   0  0  0  0  0  0  0  0  0  0  0  0
   -1.2414    0.1067   -1.0000 C   0  0  0  0  0  0  0  0  0  0  0  0
   -1.4398    1.0277   -1.8174 O   0  0  0  0  0  0  0  0  0  0  0  0
   -0.0761    0.2130    0.0179 C   0  0  2  0  0  0  0  0  0  0  0  0
    0.6268    1.5727   -0.6201 C   0  0  0  0  0  0  0  0  0  0  0  0
   -0.5296    2.8989   -0.5853 S   0  0  0  0  0  0  0  0  0  0  0  0
    0.8961   -0.7674   -0.6711 N   0  0  0  0  0  0  0  0  0  0  0  0
    2.2704   -0.5103   -0.5438 C   0  0  0  0  0  0  0  0  0  0  0  0
    2.6500    0.5588    0.0825 O   0  0  0  0  0  0  0  0  0  0  0  0
    3.3556   -1.3777   -1.0612 C   0  0  0  0  0  0  0  0  0  0  0  0
    4.6322   -0.5787   -1.1255 C   0  0  0  0  0  0  0  0  0  0  0  0
    4.8592    0.1629    0.1171 C   0  0  0  0  0  0  0  0  0  0  0  0
    4.9082   -0.6245    1.3696 C   0  0  0  0  0  0  0  0  0  0  0  0
    5.0887    0.3295    2.5596 C   0  0  0  0  0  0  0  0  0  0  0  0
    5.1448   -0.3673    3.8174 N   0  0  0  0  0  4  0  0  0  0  0  0
  2  1  1  1
  2  3  1  0
  3  4  1  0
  4  5  1  0
  5  6  2  0
  6  7  1  0
  7  8  2  0
  2  9  1  0
  9 10  1  0
 10 11  2  0
 11 12  1  0
 12 13  2  0
 13 14  1  0
 14 15  2  0
 15 16  1  0
 16 17  1  0
 17 18  2  0
 18 19  1  0
 19 20  2  0
 20 21  1  0
 20 22  1  0
 22 23  2  0
 23 24  1  0
 15 25  1  0
 25 26  2  0
 25 27  1  0
 27 28  1  0
 27 29  1  0
 29 30  2  0
 31 32  1  0
 32 33  2  0
 32 34  1  0
 34 35  1  0
 35 36  1  0
 36 37  1  0
 37 38  1  0
 38 39  2  0
 38 40  1  0
 40 41  1  6
 41 42  1  0
 40 43  1  0
 43 44  1  0
 44 45  2  0
 44 46  1  0
 46 47  1  0
 47 48  1  0
 48 49  1  0
 49 50  1  0
 50 51  1  0
  8  4  1  0
 30 10  1  0
 29 13  1  0
 23 17  1  0
M  CHG  1  51   1
M  END

