
     RDKit          3D

 21 20  0  0  0  0  0  0  0  0999 V2000
    6.3623   -0.1841   -0.8302 C   0  0  0  0  0  0  0  0  0  0  0  0
    5.4361    0.8906   -0.3312 C   0  0  0  0  0  0  0  0  0  0  0  0
    6.1639    1.7629    0.6413 C   0  0  0  0  0  0  0  0  0  0  0  0
    4.1199    0.3549    0.1885 C   0  0  0  0  0  0  0  0  0  0  0  0
    3.3062    1.5294    0.6516 C   0  0  0  0  0  0  0  0  0  0  0  0
    2.0157    1.1814    1.1720 N   0  0  0  0  0  0  0  0  0  0  0  0
    0.9808    0.5343    0.5148 C   0  0  0  0  0  0  0  0  0  0  0  0
    1.1106    0.1883   -0.6576 O   0  0  0  0  0  0  0  0  0  0  0  0
   -0.3791    0.2426    1.2912 C   0  0  2  0  0  0  0  0  0  0  0  0
    0.1394   -1.1023    2.0695 C   0  0  0  0  0  0  0  0  0  0  0  0
    0.5413   -2.1200    1.0801 C   0  0  0  0  0  0  0  0  0  0  0  0
    1.0357   -3.3145    1.8820 C   0  0  0  0  0  0  0  0  0  0  0  0
   -0.7225   -2.6311    0.3613 C   0  0  0  0  0  0  0  0  0  0  0  0
   -1.1250   -0.4948    0.1274 N   0  0  0  0  0  0  0  0  0  0  0  0
   -2.5286   -0.2526    0.1546 C   0  0  0  0  0  0  0  0  0  0  0  0
   -3.0656    0.4680    1.0151 O   0  0  0  0  0  0  0  0  0  0  0  0
   -3.3989   -0.8757   -0.8736 C   0  0  0  0  0  0  0  0  0  0  0  0
   -4.8254   -0.4718   -0.6519 C   0  0  0  0  0  0  0  0  0  0  0  0
   -4.9856    0.9912   -0.7491 C   0  0  0  0  0  0  0  0  0  0  0  0
   -5.5069    1.6700    0.3522 O   0  0  0  0  0  1  0  0  0  0  0  0
   -4.6741    1.6330   -1.7664 O   0  0  0  0  0  0  0  0  0  0  0  0
  1  2  1  0
  2  3  1  0
  2  4  1  0
  4  5  1  0
  5  6  1  0
  6  7  1  0
  7  8  2  0
  7  9  1  0
  9 10  1  1
 10 11  1  0
 11 12  1  0
 11 13  1  0
  9 14  1  0
 14 15  1  0
 15 16  2  0
 15 17  1  0
 17 18  1  0
 18 19  1  0
 19 20  1  0
 19 21  2  0
M  RAD  1  20   2
M  END

