
     RDKit          3D

 51 53  0  0  0  0  0  0  0  0999 V2000
   -5.7271    0.7857   -2.9258 C   0  0  0  0  0  0  0  0  0  0  0  0
   -4.4273   -0.2177   -2.8024 C   0  0  2  0  0  0  0  0  0  0  0  0
   -5.1255   -1.2110   -1.7030 C   0  0  0  0  0  0  0  0  0  0  0  0
   -5.4591   -0.4568   -0.5495 N   0  0  0  0  0  0  0  0  0  0  0  0
   -4.7553   -0.2050    0.5355 N   0  0  0  0  0  0  0  0  0  0  0  0
   -5.4884    0.5540    1.3553 C   0  0  0  0  0  0  0  0  0  0  0  0
   -6.6614    0.7590    0.7397 N   0  0  0  0  0  0  0  0  0  0  0  0
   -6.6473    0.1495   -0.4118 N   0  0  0  0  0  0  0  0  0  0  0  0
   -3.6902    0.6713   -1.7421 N   0  0  0  0  0  0  0  0  0  0  0  0
   -2.4157    0.1215   -1.3262 C   0  0  0  0  0  0  0  0  0  0  0  0
   -1.9417   -1.0208   -1.8086 N   0  0  0  0  0  0  0  0  0  0  0  0
   -0.7768   -1.5958   -1.4778 C   0  0  0  0  0  0  0  0  0  0  0  0
    0.0163   -0.9319   -0.5357 C   0  0  0  0  0  0  0  0  0  0  0  0
    1.2284   -1.4393   -0.1297 C   0  0  0  0  0  0  0  0  0  0  0  0
    1.9549   -0.7299    0.8020 C   0  0  0  0  0  0  0  0  0  0  0  0
    3.1894   -1.1895    1.2543 O   0  0  0  0  0  0  0  0  0  0  0  0
    4.3637   -0.4781    1.1073 C   0  0  0  0  0  0  0  0  0  0  0  0
    5.0591   -0.1192    2.2367 C   0  0  0  0  0  0  0  0  0  0  0  0
    6.2446    0.5963    2.1402 C   0  0  0  0  0  0  0  0  0  0  0  0
    6.7035    0.9350    0.9001 C   0  0  0  0  0  0  0  0  0  0  0  0
    7.8614    1.6378    0.7308 F   0  0  0  0  0  0  0  0  0  0  0  0
    6.0138    0.5800   -0.2364 C   0  0  0  0  0  0  0  0  0  0  0  0
    4.8302   -0.1345   -0.1396 C   0  0  0  0  0  0  0  0  0  0  0  0
    4.1955   -0.4565   -1.2784 F   0  0  0  0  0  0  0  0  0  0  0  0
    1.4556    0.4555    1.2979 C   0  0  0  0  0  0  0  0  0  0  0  0
    2.1262    1.1001    2.1510 O   0  0  0  0  0  0  0  0  0  0  0  0
    0.2820    0.9121    0.8813 N   0  0  0  0  0  0  0  0  0  0  0  0
   -0.2742    2.1645    1.3875 C   0  0  0  0  0  0  0  0  0  0  0  0
   -0.4653    0.2523   -0.0296 C   0  0  0  0  0  0  0  0  0  0  0  0
   -1.6694    0.7710   -0.4230 N   0  0  0  0  0  0  0  0  0  0  0  0
    1.2568    1.0834    3.5478 N   0  0  0  0  0  0  0  0  0  0  0  0
    1.6079   -0.0694    2.8201 C   0  0  0  0  0  0  0  0  0  0  0  0
    2.4673   -0.8704    3.2462 O   0  0  0  0  0  0  0  0  0  0  0  0
    0.9646   -0.3365    1.5559 C   0  0  0  0  0  0  0  0  0  0  0  0
    1.3907   -1.5714    0.8566 C   0  0  0  0  0  0  0  0  0  0  0  0
    0.5755   -1.7046   -0.5346 C   0  0  2  0  0  0  0  0  0  0  0  0
    1.0826   -0.3784   -1.1326 N   0  0  0  0  0  0  0  0  0  0  0  0
    2.1517   -0.5239   -2.0286 C   0  0  0  0  0  0  0  0  0  0  0  0
    2.5727   -1.7118   -2.2494 O   0  0  0  0  0  0  0  0  0  0  0  0
    2.7890    0.6419   -2.7044 C   0  0  0  0  0  0  0  0  0  0  0  0
    3.9084    0.2039   -3.6206 C   0  0  0  0  0  0  0  0  0  0  0  0
    4.6792    1.6342   -4.4396 S   0  0  0  0  0  0  0  0  0  0  0  0
   -0.8117   -1.1402    0.0001 C   0  0  0  0  0  0  0  0  0  0  0  0
   -1.3197   -0.1774   -0.5468 O   0  0  0  0  0  0  0  0  0  0  0  0
   -1.3902   -1.7739    1.0799 N   0  0  0  0  0  0  0  0  0  0  0  0
   -2.5847   -1.5280    1.7685 C   0  0  0  0  0  0  0  0  0  0  0  0
   -2.8128   -0.2069    2.3779 C   0  0  0  0  0  0  0  0  0  0  0  0
   -2.9174    0.9151    1.3974 C   0  0  0  0  0  0  0  0  0  0  0  0
   -4.1265    0.6827    0.4913 C   0  0  0  0  0  0  0  0  0  0  0  0
   -4.1850    1.8446   -0.4874 C   0  0  0  0  0  0  0  0  0  0  0  0
   -5.2985    1.7050   -1.3976 N   0  0  0  0  0  4  0  0  0  0  0  0
  2  1  1  1
  2  3  1  0
  3  4  1  0
  4  5  1  0
  5  6  2  0
  6  7  1  0
  7  8  2  0
  2  9  1  0
  9 10  1  0
 10 11  2  0
 11 12  1  0
 12 13  2  0
 13 14  1  0
 14 15  2  0
 15 16  1  0
 16 17  1  0
 17 18  2  0
 18 19  1  0
 19 20  2  0
 20 21  1  0
 20 22  1  0
 22 23  2  0
 23 24  1  0
 15 25  1  0
 25 26  2  0
 25 27  1  0
 27 28  1  0
 27 29  1  0
 29 30  2  0
 31 32  1  0
 32 33  2  0
 32 34  1  0
 34 35  1  0
 36 35  1  1
 36 37  1  0
 37 38  1  0
 38 39  2  0
 38 40  1  0
 40 41  1  0
 41 42  1  0
 36 43  1  0
 43 44  2  0
 43 45  1  0
 45 46  1  0
 46 47  1  0
 47 48  1  0
 48 49  1  0
 49 50  1  0
 50 51  1  0
  8  4  1  0
 30 10  1  0
 29 13  1  0
 23 17  1  0
M  CHG  1  51   1
M  END

