
     RDKit          3D

 19 18  0  0  0  0  0  0  0  0999 V2000
   -1.9197    4.6100   -1.5450 C   0  0  0  0  0  0  0  0  0  0  0  0
   -2.4998    3.6877   -0.5128 C   0  0  0  0  0  0  0  0  0  0  0  0
   -1.5620    2.5155   -0.2553 C   0  0  0  0  0  0  0  0  0  0  0  0
   -0.4991    2.4555   -0.8906 O   0  0  0  0  0  0  0  0  0  0  0  0
   -1.9613    1.5990    0.6744 N   0  0  0  0  0  0  0  0  0  0  0  0
   -1.1425    0.3533    1.0905 C   0  0  1  0  0  0  0  0  0  0  0  0
   -2.4325   -0.6896    1.0457 C   0  0  0  0  0  0  0  0  0  0  0  0
   -1.9750   -2.0227    1.4309 C   0  0  0  0  0  0  0  0  0  0  0  0
   -1.0067   -2.7392    0.6611 C   0  0  0  0  0  0  0  0  0  0  0  0
    0.0960   -3.3148    1.3185 O   0  0  0  0  0  1  0  0  0  0  0  0
   -1.1079   -2.8768   -0.6037 O   0  0  0  0  0  0  0  0  0  0  0  0
   -0.5103   -0.0470   -0.2884 C   0  0  0  0  0  0  0  0  0  0  0  0
   -1.0205    0.0761   -1.3523 O   0  0  0  0  0  0  0  0  0  0  0  0
    0.7662   -0.5837   -0.1114 N   0  0  0  0  0  0  0  0  0  0  0  0
    1.6320   -1.0573   -1.1617 C   0  0  0  0  0  0  0  0  0  0  0  0
    2.9447   -1.5536   -0.5148 C   0  0  0  0  0  0  0  0  0  0  0  0
    3.5482   -0.3629    0.2392 C   0  0  0  0  0  0  0  0  0  0  0  0
    4.8266   -0.8429    0.8700 C   0  0  0  0  0  0  0  0  0  0  0  0
    3.8238    0.7935   -0.6576 C   0  0  0  0  0  0  0  0  0  0  0  0
  1  2  1  0
  2  3  1  0
  3  4  2  0
  3  5  1  0
  5  6  1  0
  6  7  1  6
  7  8  1  0
  8  9  1  0
  9 10  1  0
  9 11  2  0
  6 12  1  0
 12 13  2  0
 12 14  1  0
 14 15  1  0
 15 16  1  0
 16 17  1  0
 17 18  1  0
 17 19  1  0
M  RAD  1  10   2
M  END

