
     RDKit          3D

 44 46  0  0  0  0  0  0  0  0999 V2000
    3.8982    1.0470    1.3055 C   0  0  0  0  0  0  0  0  0  0  0  0
    2.4999    1.4552    0.9291 C   0  0  0  0  0  0  0  0  0  0  0  0
    1.7334    0.3232    0.3889 N   0  0  0  0  0  0  0  0  0  0  0  0
    2.1768   -0.3537   -0.7750 C   0  0  0  0  0  0  0  0  0  0  0  0
    3.2375    0.0519   -1.3146 O   0  0  0  0  0  0  0  0  0  0  0  0
    1.4874   -1.4937   -1.3957 C   0  0  0  0  0  0  0  0  0  0  0  0
    0.2891   -1.8842   -0.7110 N   0  0  0  0  0  0  0  0  0  0  0  0
   -0.7499   -0.8946   -0.6015 C   0  0  0  0  0  0  0  0  0  0  0  0
   -0.5364    0.2134   -1.1021 O   0  0  0  0  0  0  0  0  0  0  0  0
   -2.0332   -1.2217    0.0986 C   0  0  0  0  0  0  0  0  0  0  0  0
   -2.8544    0.1810   -0.0409 C   0  0  1  0  0  0  0  0  0  0  0  0
   -4.1720   -0.4024    0.7681 C   0  0  0  0  0  0  0  0  0  0  0  0
   -2.1866    0.8056    1.3416 C   0  0  0  0  0  0  0  0  0  0  0  0
   -2.7896    2.1730    1.4816 C   0  0  0  0  0  0  0  0  0  0  0  0
    4.1385    1.8107   -1.3084 C   0  0  0  0  0  0  0  0  0  0  0  0
    4.8351    1.2422    0.0863 C   0  0  2  0  0  0  0  0  0  0  0  0
    6.0566    0.4768   -0.7365 C   0  0  0  0  0  0  0  0  0  0  0  0
    6.7807   -0.0923    0.4054 N   0  0  0  0  0  0  0  0  0  0  0  0
    6.5231   -1.2808    0.9014 N   0  0  0  0  0  0  0  0  0  0  0  0
    7.3952   -1.4422    1.9366 C   0  0  0  0  0  0  0  0  0  0  0  0
    8.1347   -0.3381    2.0095 N   0  0  0  0  0  0  0  0  0  0  0  0
    7.7577    0.5031    1.0616 N   0  0  0  0  0  0  0  0  0  0  0  0
    3.9254   -0.0553    0.1062 N   0  0  0  0  0  0  0  0  0  0  0  0
    2.5277    0.2322    0.1763 C   0  0  0  0  0  0  0  0  0  0  0  0
    2.0514    1.4867    0.2204 N   0  0  0  0  0  0  0  0  0  0  0  0
    0.7428    1.7620    0.2861 C   0  0  0  0  0  0  0  0  0  0  0  0
   -0.2071    0.7302    0.3125 C   0  0  0  0  0  0  0  0  0  0  0  0
   -1.5294    0.9676    0.3778 C   0  0  0  0  0  0  0  0  0  0  0  0
   -2.4673   -0.1028    0.4027 C   0  0  0  0  0  0  0  0  0  0  0  0
   -3.7253    0.2526    0.4692 O   0  0  0  0  0  0  0  0  0  0  0  0
   -4.8476    0.1966   -0.2224 C   0  0  0  0  0  0  0  0  0  0  0  0
   -5.3491    1.4631   -0.6656 C   0  0  0  0  0  0  0  0  0  0  0  0
   -6.4725    1.6008   -1.3752 C   0  0  0  0  0  0  0  0  0  0  0  0
   -7.1984    0.4860   -1.7075 C   0  0  0  0  0  0  0  0  0  0  0  0
   -8.3393    0.6347   -2.4298 F   0  0  0  0  0  0  0  0  0  0  0  0
   -6.7586   -0.7449   -1.3054 C   0  0  0  0  0  0  0  0  0  0  0  0
   -5.5750   -0.8798   -0.5580 C   0  0  0  0  0  0  0  0  0  0  0  0
   -5.2415   -2.1492   -0.1718 F   0  0  0  0  0  0  0  0  0  0  0  0
   -1.9006   -1.3332    0.3561 C   0  0  0  0  0  0  0  0  0  0  0  0
   -2.5917   -2.4077    0.3739 O   0  0  0  0  0  0  0  0  0  0  0  0
   -0.5614   -1.5615    0.2896 N   0  0  0  0  0  0  0  0  0  0  0  0
   -0.0505   -2.9236    0.2424 C   0  0  0  0  0  0  0  0  0  0  0  0
    0.2986   -0.5454    0.2667 C   0  0  0  0  0  0  0  0  0  0  0  0
    1.6478   -0.7667    0.2000 N   0  0  0  0  0  0  0  0  0  0  0  0
  1  2  1  0
  2  3  1  0
  3  4  1  0
  4  5  2  0
  4  6  1  0
  6  7  1  0
  7  8  1  0
  8  9  2  0
  8 10  1  0
 10 11  1  0
 11 12  1  1
 11 13  1  0
 13 14  1  0
 16 15  1  6
 16 17  1  0
 17 18  1  0
 18 19  1  0
 19 20  2  0
 20 21  1  0
 21 22  2  0
 16 23  1  0
 23 24  1  0
 24 25  2  0
 25 26  1  0
 26 27  2  0
 27 28  1  0
 28 29  2  0
 29 30  1  0
 30 31  1  0
 31 32  2  0
 32 33  1  0
 33 34  2  0
 34 35  1  0
 34 36  1  0
 36 37  2  0
 37 38  1  0
 29 39  1  0
 39 40  2  0
 39 41  1  0
 41 42  1  0
 41 43  1  0
 43 44  2  0
 22 18  1  0
 44 24  1  0
 43 27  1  0
 37 31  1  0
M  END

