
     RDKit          3D

 54 57  0  0  0  0  0  0  0  0999 V2000
    1.6383    3.7208    1.4487 C   0  0  0  0  0  0  0  0  0  0  0  0
    2.2116    3.7601    0.0947 C   0  0  0  0  0  0  0  0  0  0  0  0
    1.2699    4.0045   -0.9824 C   0  0  0  0  0  0  0  0  0  0  0  0
    3.3774    2.8910   -0.0702 C   0  0  0  0  0  0  0  0  0  0  0  0
    3.2284    1.4475    0.1668 C   0  0  0  0  0  0  0  0  0  0  0  0
    2.2625    0.7619   -0.7047 C   0  0  0  0  0  0  0  0  0  0  0  0
    1.6588    1.4111   -1.5932 O   0  0  0  0  0  0  0  0  0  0  0  0
    2.0112   -0.6511   -0.5357 N   0  0  0  0  0  0  0  0  0  0  0  0
    0.9600   -1.1814   -1.5456 C   0  0  1  0  0  0  0  0  0  0  0  0
    1.2254   -2.7484   -1.2170 C   0  0  0  0  0  0  0  0  0  0  0  0
    2.6660   -2.9711   -1.5411 C   0  0  0  0  0  0  0  0  0  0  0  0
    3.6513   -2.1959   -0.7423 C   0  0  0  0  0  0  0  0  0  0  0  0
    3.5762   -2.5082    0.7414 C   0  0  0  0  0  0  0  0  0  0  0  0
    4.5390   -1.7347    1.4916 N   0  0  0  0  0  4  0  0  0  0  0  0
   -0.2841   -1.0358   -0.6099 C   0  0  0  0  0  0  0  0  0  0  0  0
   -0.2317   -0.6479    0.5471 O   0  0  0  0  0  0  0  0  0  0  0  0
   -1.5056   -1.3922   -1.2146 N   0  0  0  0  0  0  0  0  0  0  0  0
   -2.7788   -1.3206   -0.5079 C   0  0  0  0  0  0  0  0  0  0  0  0
   -3.0559    0.0996   -0.0453 C   0  0  0  0  0  0  0  0  0  0  0  0
   -4.3425    0.0894    0.6711 C   0  0  0  0  0  0  0  0  0  0  0  0
   -5.6421    0.2711    0.3051 C   0  0  0  0  0  0  0  0  0  0  0  0
   -6.4202    0.1590    1.3852 N   0  0  0  0  0  0  0  0  0  0  0  0
   -5.6359   -0.0915    2.4354 C   0  0  0  0  0  0  0  0  0  0  0  0
   -4.3795   -0.1367    2.0226 N   0  0  0  0  0  0  0  0  0  0  0  0
    4.0314   -1.6965    0.2929 C   0  0  0  0  0  0  0  0  0  0  0  0
    4.4195   -1.3975   -1.2910 C   0  0  2  0  0  0  0  0  0  0  0  0
    5.9440   -0.8735   -0.9481 C   0  0  0  0  0  0  0  0  0  0  0  0
    5.8492    0.2458   -0.0871 N   0  0  0  0  0  0  0  0  0  0  0  0
    5.8217    0.3191    1.2453 N   0  0  0  0  0  0  0  0  0  0  0  0
    5.7235    1.6042    1.5927 C   0  0  0  0  0  0  0  0  0  0  0  0
    5.6887    2.3448    0.4876 N   0  0  0  0  0  0  0  0  0  0  0  0
    5.7669    1.4881   -0.5098 N   0  0  0  0  0  0  0  0  0  0  0  0
    3.7770    0.0423   -1.2934 N   0  0  0  0  0  0  0  0  0  0  0  0
    2.3619    0.0445   -0.9900 C   0  0  0  0  0  0  0  0  0  0  0  0
    1.6753    1.1960   -0.9549 N   0  0  0  0  0  0  0  0  0  0  0  0
    0.3629    1.2670   -0.6802 C   0  0  0  0  0  0  0  0  0  0  0  0
   -0.3283    0.1058   -0.4187 C   0  0  0  0  0  0  0  0  0  0  0  0
   -1.6739    0.0788   -0.1273 C   0  0  0  0  0  0  0  0  0  0  0  0
   -2.3501   -1.0958    0.1324 C   0  0  0  0  0  0  0  0  0  0  0  0
   -3.7057   -1.1454    0.4281 O   0  0  0  0  0  0  0  0  0  0  0  0
   -4.4640   -0.0103    0.4802 C   0  0  0  0  0  0  0  0  0  0  0  0
   -5.5413    0.0789   -0.3997 C   0  0  0  0  0  0  0  0  0  0  0  0
   -6.3500    1.1876   -0.4079 C   0  0  0  0  0  0  0  0  0  0  0  0
   -6.1240    2.2419    0.4484 C   0  0  0  0  0  0  0  0  0  0  0  0
   -6.9512    3.2938    0.3885 F   0  0  0  0  0  0  0  0  0  0  0  0
   -5.0597    2.1399    1.3089 C   0  0  0  0  0  0  0  0  0  0  0  0
   -4.2215    1.0386    1.3474 C   0  0  0  0  0  0  0  0  0  0  0  0
   -3.1751    0.9623    2.2084 F   0  0  0  0  0  0  0  0  0  0  0  0
   -1.5847   -2.2407    0.0797 C   0  0  0  0  0  0  0  0  0  0  0  0
   -2.1727   -3.3477    0.3138 O   0  0  0  0  0  0  0  0  0  0  0  0
   -0.2788   -2.2234   -0.2022 N   0  0  0  0  0  0  0  0  0  0  0  0
    0.4794   -3.4815   -0.2423 C   0  0  0  0  0  0  0  0  0  0  0  0
    0.3710   -1.0736   -0.4537 C   0  0  0  0  0  0  0  0  0  0  0  0
    1.7086   -1.0935   -0.7389 N   0  0  0  0  0  0  0  0  0  0  0  0
  1  2  1  0
  2  3  1  0
  2  4  1  0
  4  5  1  0
  5  6  1  0
  6  7  2  0
  6  8  1  0
  8  9  1  0
  9 10  1  1
 10 11  1  0
 11 12  1  0
 12 13  1  0
 13 14  1  0
  9 15  1  0
 15 16  2  0
 15 17  1  0
 17 18  1  0
 18 19  1  0
 19 20  1  0
 20 21  2  0
 21 22  1  0
 22 23  1  0
 23 24  2  0
 26 25  1  1
 26 27  1  0
 27 28  1  0
 28 29  1  0
 29 30  2  0
 30 31  1  0
 31 32  2  0
 26 33  1  0
 33 34  1  0
 34 35  2  0
 35 36  1  0
 36 37  2  0
 37 38  1  0
 38 39  2  0
 39 40  1  0
 40 41  1  0
 41 42  2  0
 42 43  1  0
 43 44  2  0
 44 45  1  0
 44 46  1  0
 46 47  2  0
 47 48  1  0
 39 49  1  0
 49 50  2  0
 49 51  1  0
 51 52  1  0
 51 53  1  0
 53 54  2  0
 24 20  1  0
 32 28  1  0
 54 34  1  0
 53 37  1  0
 47 41  1  0
M  CHG  1  14   1
M  END

