
     RDKit          3D

 47 49  0  0  0  0  0  0  0  0999 V2000
   -3.3263    2.4882    1.2545 C   0  0  0  0  0  0  0  0  0  0  0  0
   -4.2043    1.7572    0.2568 C   0  0  0  0  0  0  0  0  0  0  0  0
   -3.7376    0.4283   -0.0638 N   0  0  0  0  0  0  0  0  0  0  0  0
   -2.5182    0.0615   -0.6160 C   0  0  0  0  0  0  0  0  0  0  0  0
   -1.7070    0.9449   -0.8705 O   0  0  0  0  0  0  0  0  0  0  0  0
   -2.0612   -1.3661   -0.9425 C   0  0  2  0  0  0  0  0  0  0  0  0
   -1.9879   -1.9652    0.5800 C   0  0  0  0  0  0  0  0  0  0  0  0
   -1.2315   -3.1141    0.3690 O   0  0  0  0  0  0  0  0  0  0  0  0
   -0.5290   -1.2419   -1.0539 N   0  0  0  0  0  0  0  0  0  0  0  0
    0.2491   -0.6890   -0.0674 C   0  0  0  0  0  0  0  0  0  0  0  0
   -0.2641   -0.2712    0.9701 O   0  0  0  0  0  0  0  0  0  0  0  0
    1.7131   -0.6040   -0.2507 C   0  0  0  0  0  0  0  0  0  0  0  0
    2.3463   -0.0469    1.0102 C   0  0  0  0  0  0  0  0  0  0  0  0
    3.8443    0.0690    0.9252 C   0  0  0  0  0  0  0  0  0  0  0  0
    4.2733    0.9433   -0.1908 C   0  0  0  0  0  0  0  0  0  0  0  0
    5.6597    1.0703   -0.3772 O   0  0  0  0  0  1  0  0  0  0  0  0
    3.4813    1.5358   -0.9329 O   0  0  0  0  0  0  0  0  0  0  0  0
    3.8207    0.4179   -2.5924 C   0  0  0  0  0  0  0  0  0  0  0  0
    4.6865    0.8360   -1.2244 C   0  0  2  0  0  0  0  0  0  0  0  0
    5.7544   -0.4230   -1.4392 C   0  0  0  0  0  0  0  0  0  0  0  0
    6.6419   -0.2473   -0.3079 N   0  0  0  0  0  0  0  0  0  0  0  0
    7.7277    0.4839   -0.3346 N   0  0  0  0  0  0  0  0  0  0  0  0
    8.2884    0.4134    0.8764 C   0  0  0  0  0  0  0  0  0  0  0  0
    7.5245   -0.3765    1.6481 N   0  0  0  0  0  0  0  0  0  0  0  0
    6.5131   -0.7730    0.8951 N   0  0  0  0  0  0  0  0  0  0  0  0
    3.7451   -0.0233   -0.2833 N   0  0  0  0  0  0  0  0  0  0  0  0
    2.3838    0.3901   -0.3161 C   0  0  0  0  0  0  0  0  0  0  0  0
    1.9574    1.4101   -1.0757 N   0  0  0  0  0  0  0  0  0  0  0  0
    0.6776    1.8189   -1.1235 C   0  0  0  0  0  0  0  0  0  0  0  0
   -0.2725    1.1670   -0.3550 C   0  0  0  0  0  0  0  0  0  0  0  0
   -1.5901    1.5341   -0.3589 C   0  0  0  0  0  0  0  0  0  0  0  0
   -2.4834    0.8598    0.4154 C   0  0  0  0  0  0  0  0  0  0  0  0
   -3.8335    1.2238    0.4216 O   0  0  0  0  0  0  0  0  0  0  0  0
   -4.8416    0.3453    0.0449 C   0  0  0  0  0  0  0  0  0  0  0  0
   -5.8281    0.0142    0.9488 C   0  0  0  0  0  0  0  0  0  0  0  0
   -6.8529   -0.8539    0.6259 C   0  0  0  0  0  0  0  0  0  0  0  0
   -6.9415   -1.4357   -0.6219 C   0  0  0  0  0  0  0  0  0  0  0  0
   -7.9512   -2.2915   -0.9411 F   0  0  0  0  0  0  0  0  0  0  0  0
   -5.9512   -1.1000   -1.5214 C   0  0  0  0  0  0  0  0  0  0  0  0
   -4.9171   -0.2289   -1.2072 C   0  0  0  0  0  0  0  0  0  0  0  0
   -3.9492    0.0947   -2.0972 F   0  0  0  0  0  0  0  0  0  0  0  0
   -2.0500   -0.1811    1.1910 C   0  0  0  0  0  0  0  0  0  0  0  0
   -2.8547   -0.8181    1.9134 O   0  0  0  0  0  0  0  0  0  0  0  0
   -0.7491   -0.5257    1.1798 N   0  0  0  0  0  0  0  0  0  0  0  0
   -0.2598   -1.6245    1.9913 C   0  0  0  0  0  0  0  0  0  0  0  0
    0.1555    0.1236    0.4240 C   0  0  0  0  0  0  0  0  0  0  0  0
    1.4495   -0.2301    0.4221 N   0  0  0  0  0  0  0  0  0  0  0  0
  1  2  1  0
  2  3  1  0
  3  4  1  0
  4  5  2  0
  4  6  1  0
  6  7  1  1
  7  8  1  0
  6  9  1  0
  9 10  1  0
 10 11  2  0
 10 12  1  0
 12 13  1  0
 13 14  1  0
 14 15  1  0
 15 16  1  0
 15 17  2  0
 19 18  1  6
 19 20  1  0
 20 21  1  0
 21 22  1  0
 22 23  2  0
 23 24  1  0
 24 25  2  0
 19 26  1  0
 26 27  1  0
 27 28  2  0
 28 29  1  0
 29 30  2  0
 30 31  1  0
 31 32  2  0
 32 33  1  0
 33 34  1  0
 34 35  2  0
 35 36  1  0
 36 37  2  0
 37 38  1  0
 37 39  1  0
 39 40  2  0
 40 41  1  0
 32 42  1  0
 42 43  2  0
 42 44  1  0
 44 45  1  0
 44 46  1  0
 46 47  2  0
 25 21  1  0
 47 27  1  0
 46 30  1  0
 40 34  1  0
M  RAD  1  16   2
M  END

