
     RDKit          3D

 55 58  0  0  0  0  0  0  0  0999 V2000
   -3.3680    3.3685   -1.1310 C   0  0  0  0  0  0  0  0  0  0  0  0
   -3.6457    2.1373   -0.2892 C   0  0  0  0  0  0  0  0  0  0  0  0
   -4.6510    2.4407    0.8137 C   0  0  0  0  0  0  0  0  0  0  0  0
   -4.1905    0.9859   -1.0770 C   0  0  0  0  0  0  0  0  0  0  0  0
   -3.3506    0.4544   -2.1346 C   0  0  0  0  0  0  0  0  0  0  0  0
   -2.1035   -0.1260   -1.8865 N   0  0  0  0  0  0  0  0  0  0  0  0
   -0.9207    0.3426   -1.3054 C   0  0  0  0  0  0  0  0  0  0  0  0
   -0.8604    1.4774   -0.8870 O   0  0  0  0  0  0  0  0  0  0  0  0
    0.3246   -0.6569   -1.2248 C   0  0  2  0  0  0  0  0  0  0  0  0
   -0.0106   -1.3295    0.2315 C   0  0  0  0  0  0  0  0  0  0  0  0
   -1.3065   -1.9927    0.1585 C   0  0  0  0  0  0  0  0  0  0  0  0
   -1.4173   -3.3001   -0.2984 C   0  0  0  0  0  0  0  0  0  0  0  0
   -2.6463   -3.8878   -0.3189 C   0  0  0  0  0  0  0  0  0  0  0  0
   -3.8008   -3.2500    0.0932 C   0  0  0  0  0  0  0  0  0  0  0  0
   -3.6909   -1.9497    0.5474 C   0  0  0  0  0  0  0  0  0  0  0  0
   -2.4465   -1.3488    0.5703 C   0  0  0  0  0  0  0  0  0  0  0  0
    1.3581    0.3871   -0.6366 N   0  0  0  0  0  0  0  0  0  0  0  0
    2.3207   -0.1035    0.2538 C   0  0  0  0  0  0  0  0  0  0  0  0
    2.3762   -1.3011    0.5838 O   0  0  0  0  0  0  0  0  0  0  0  0
    3.2981    0.9129    0.7963 C   0  0  0  0  0  0  0  0  0  0  0  0
    4.2372    0.1820    1.7302 C   0  0  0  0  0  0  0  0  0  0  0  0
    5.2765    1.0224    2.3598 C   0  0  0  0  0  0  0  0  0  0  0  0
    6.1245    1.6407    1.3225 C   0  0  0  0  0  0  0  0  0  0  0  0
    7.2774    2.4410    1.6212 N   0  0  0  0  0  0  0  0  0  0  0  0
    5.8161    1.4534    0.1075 O   0  0  0  0  0  0  0  0  0  0  0  0
    4.4586   -1.2331    0.0605 C   0  0  0  0  0  0  0  0  0  0  0  0
    4.8974    0.2274   -0.6028 C   0  0  2  0  0  0  0  0  0  0  0  0
    5.8096    0.6394    0.7237 C   0  0  0  0  0  0  0  0  0  0  0  0
    6.7903   -0.4167    0.7739 N   0  0  0  0  0  0  0  0  0  0  0  0
    6.7108   -1.5665    1.4085 N   0  0  0  0  0  0  0  0  0  0  0  0
    7.8496   -2.2287    1.1750 C   0  0  0  0  0  0  0  0  0  0  0  0
    8.6097   -1.4549    0.3907 N   0  0  0  0  0  0  0  0  0  0  0  0
    7.9508   -0.3510    0.1532 N   0  0  0  0  0  0  0  0  0  0  0  0
    3.6479    1.0397   -0.0741 N   0  0  0  0  0  0  0  0  0  0  0  0
    2.3816    0.6152   -0.4815 C   0  0  0  0  0  0  0  0  0  0  0  0
    2.1407   -0.4314   -1.2890 N   0  0  0  0  0  0  0  0  0  0  0  0
    0.8838   -0.7796   -1.6381 C   0  0  0  0  0  0  0  0  0  0  0  0
   -0.2194   -0.0826   -1.1865 C   0  0  0  0  0  0  0  0  0  0  0  0
   -1.5231   -0.4206   -1.5311 C   0  0  0  0  0  0  0  0  0  0  0  0
   -2.5781    0.3130   -1.0487 C   0  0  0  0  0  0  0  0  0  0  0  0
   -3.8592   -0.0186   -1.3869 O   0  0  0  0  0  0  0  0  0  0  0  0
   -4.7438   -0.3510   -0.3690 C   0  0  0  0  0  0  0  0  0  0  0  0
   -4.3932   -0.3629    0.9638 C   0  0  0  0  0  0  0  0  0  0  0  0
   -5.3336   -0.7072    1.9355 C   0  0  0  0  0  0  0  0  0  0  0  0
   -6.6118   -1.0325    1.5303 C   0  0  0  0  0  0  0  0  0  0  0  0
   -7.5576   -1.3725    2.4320 F   0  0  0  0  0  0  0  0  0  0  0  0
   -6.9649   -1.0211    0.1952 C   0  0  0  0  0  0  0  0  0  0  0  0
   -6.0302   -0.6807   -0.7484 C   0  0  0  0  0  0  0  0  0  0  0  0
   -6.4190   -0.6820   -2.0526 F   0  0  0  0  0  0  0  0  0  0  0  0
   -2.2887    1.3724   -0.2281 C   0  0  0  0  0  0  0  0  0  0  0  0
   -3.2372    2.0587    0.2259 O   0  0  0  0  0  0  0  0  0  0  0  0
   -1.0125    1.6816    0.0928 N   0  0  0  0  0  0  0  0  0  0  0  0
   -0.7237    2.8195    0.9727 C   0  0  0  0  0  0  0  0  0  0  0  0
    0.0478    0.9894   -0.3580 C   0  0  0  0  0  0  0  0  0  0  0  0
    1.3173    1.2965   -0.0391 N   0  0  0  0  0  0  0  0  0  0  0  0
  1  2  1  0
  2  3  1  0
  2  4  1  0
  4  5  1  0
  5  6  1  0
  6  7  1  0
  7  8  2  0
  7  9  1  0
  9 10  1  1
 10 11  1  0
 11 12  2  0
 12 13  1  0
 13 14  2  0
 14 15  1  0
 15 16  2  0
  9 17  1  0
 17 18  1  0
 18 19  2  0
 18 20  1  0
 20 21  1  0
 21 22  1  0
 22 23  1  0
 23 24  1  0
 23 25  2  0
 27 26  1  1
 27 28  1  0
 28 29  1  0
 29 30  1  0
 30 31  2  0
 31 32  1  0
 32 33  2  0
 27 34  1  0
 34 35  1  0
 35 36  2  0
 36 37  1  0
 37 38  2  0
 38 39  1  0
 39 40  2  0
 40 41  1  0
 41 42  1  0
 42 43  2  0
 43 44  1  0
 44 45  2  0
 45 46  1  0
 45 47  1  0
 47 48  2  0
 48 49  1  0
 40 50  1  0
 50 51  2  0
 50 52  1  0
 52 53  1  0
 52 54  1  0
 54 55  2  0
 16 11  1  0
 33 29  1  0
 55 35  1  0
 54 38  1  0
 48 42  1  0
M  END

