
     RDKit          3D

 56 60  0  0  0  0  0  0  0  0999 V2000
   -1.2945   -4.5376   -0.7420 C   0  0  0  0  0  0  0  0  0  0  0  0
   -1.8340   -3.5081    0.2487 C   0  0  0  0  0  0  0  0  0  0  0  0
   -2.5791   -2.3810   -0.6268 C   0  0  2  0  0  0  0  0  0  0  0  0
   -1.3184   -1.9346   -1.4894 C   0  0  0  0  0  0  0  0  0  0  0  0
   -2.6049   -1.1853    0.5677 C   0  0  2  0  0  0  0  0  0  0  0  0
   -3.3067   -0.1029   -0.3048 N   0  0  0  0  0  0  0  0  0  0  0  0
   -4.0376    0.8981    0.3840 C   0  0  0  0  0  0  0  0  0  0  0  0
   -4.0437    0.8134    1.6365 O   0  0  0  0  0  0  0  0  0  0  0  0
   -4.7338    1.9600   -0.3844 C   0  0  0  0  0  0  0  0  0  0  0  0
   -5.4736    2.8665    0.8028 C   0  0  1  0  0  0  0  0  0  0  0  0
   -4.0085    3.2221    1.5167 C   0  0  0  0  0  0  0  0  0  0  0  0
   -5.4380    4.1231   -0.0421 O   0  0  0  0  0  0  0  0  0  0  0  0
   -1.1354   -0.6419    0.4680 C   0  0  0  0  0  0  0  0  0  0  0  0
   -0.7365    0.2896   -0.1450 O   0  0  0  0  0  0  0  0  0  0  0  0
   -0.2615   -1.4354    1.2434 N   0  0  0  0  0  0  0  0  0  0  0  0
    1.1492   -1.1552    1.3199 C   0  0  0  0  0  0  0  0  0  0  0  0
    1.7069   -1.2720   -0.0981 C   0  0  0  0  0  0  0  0  0  0  0  0
    3.1652   -0.9862    0.0058 C   0  0  0  0  0  0  0  0  0  0  0  0
    4.1704   -1.9069    0.0058 C   0  0  0  0  0  0  0  0  0  0  0  0
    5.3483   -1.2574    0.1285 N   0  0  0  0  0  0  0  0  0  0  0  0
    5.1331    0.0663    0.2087 C   0  0  0  0  0  0  0  0  0  0  0  0
    5.8901    1.2081    0.3388 C   0  0  0  0  0  0  0  0  0  0  0  0
    5.3216    2.4653    0.3896 C   0  0  0  0  0  0  0  0  0  0  0  0
    3.9669    2.6355    0.3126 C   0  0  0  0  0  0  0  0  0  0  0  0
    3.1877    1.5138    0.1834 C   0  0  0  0  0  0  0  0  0  0  0  0
    3.7666    0.2428    0.1325 C   0  0  0  0  0  0  0  0  0  0  0  0
   -3.8195    0.7265   -0.3972 C   0  0  0  0  0  0  0  0  0  0  0  0
   -4.1549    0.6009    1.2165 C   0  0  2  0  0  0  0  0  0  0  0  0
   -5.4179    1.6609    1.1165 C   0  0  0  0  0  0  0  0  0  0  0  0
   -6.2513    0.9388    0.1614 N   0  0  0  0  0  0  0  0  0  0  0  0
   -6.2429    1.0266   -1.1643 N   0  0  0  0  0  0  0  0  0  0  0  0
   -7.1461    0.2146   -1.7099 C   0  0  0  0  0  0  0  0  0  0  0  0
   -7.7398   -0.4038   -0.6649 N   0  0  0  0  0  0  0  0  0  0  0  0
   -7.1901    0.0434    0.4459 N   0  0  0  0  0  0  0  0  0  0  0  0
   -3.0877    1.6943    1.6088 N   0  0  0  0  0  0  0  0  0  0  0  0
   -1.7712    1.2915    1.2050 C   0  0  0  0  0  0  0  0  0  0  0  0
   -0.6855    2.0786    1.4393 N   0  0  0  0  0  0  0  0  0  0  0  0
    0.5635    1.7381    1.0772 C   0  0  0  0  0  0  0  0  0  0  0  0
    0.7780    0.5338    0.4343 C   0  0  0  0  0  0  0  0  0  0  0  0
    2.0249    0.1110    0.0309 C   0  0  0  0  0  0  0  0  0  0  0  0
    2.1258   -1.1115   -0.6040 C   0  0  0  0  0  0  0  0  0  0  0  0
    3.3512   -1.6229   -1.0491 O   0  0  0  0  0  0  0  0  0  0  0  0
    4.4888   -0.8938   -0.8520 C   0  0  0  0  0  0  0  0  0  0  0  0
    5.2163   -0.5097   -1.9519 C   0  0  0  0  0  0  0  0  0  0  0  0
    6.3861    0.2367   -1.7988 C   0  0  0  0  0  0  0  0  0  0  0  0
    6.7498    0.5532   -0.4956 C   0  0  0  0  0  0  0  0  0  0  0  0
    7.8777    1.2768   -0.2895 F   0  0  0  0  0  0  0  0  0  0  0  0
    6.0297    0.1739    0.6053 C   0  0  0  0  0  0  0  0  0  0  0  0
    4.8723   -0.5678    0.4078 C   0  0  0  0  0  0  0  0  0  0  0  0
    4.1933   -0.9197    1.5315 F   0  0  0  0  0  0  0  0  0  0  0  0
    1.0208   -1.9010   -0.8366 C   0  0  0  0  0  0  0  0  0  0  0  0
    1.1290   -3.0342   -1.4273 O   0  0  0  0  0  0  0  0  0  0  0  0
   -0.1726   -1.4663   -0.4352 N   0  0  0  0  0  0  0  0  0  0  0  0
   -1.3402   -2.3212   -0.6914 C   0  0  0  0  0  0  0  0  0  0  0  0
   -0.2845   -0.2854    0.1803 C   0  0  0  0  0  0  0  0  0  0  0  0
   -1.5030    0.1377    0.5795 N   0  0  0  0  0  0  0  0  0  0  0  0
  1  2  1  0
  2  3  1  0
  3  4  1  6
  3  5  1  0
  5  6  1  6
  6  7  1  0
  7  8  2  0
  7  9  1  0
  9 10  1  0
 10 11  1  1
 10 12  1  0
  5 13  1  0
 13 14  2  0
 13 15  1  0
 15 16  1  0
 16 17  1  0
 17 18  1  0
 18 19  2  0
 19 20  1  0
 20 21  1  0
 21 22  2  0
 22 23  1  0
 23 24  2  0
 24 25  1  0
 25 26  2  0
 28 27  1  6
 28 29  1  0
 29 30  1  0
 30 31  1  0
 31 32  2  0
 32 33  1  0
 33 34  2  0
 28 35  1  0
 35 36  1  0
 36 37  2  0
 37 38  1  0
 38 39  2  0
 39 40  1  0
 40 41  2  0
 41 42  1  0
 42 43  1  0
 43 44  2  0
 44 45  1  0
 45 46  2  0
 46 47  1  0
 46 48  1  0
 48 49  2  0
 49 50  1  0
 41 51  1  0
 51 52  2  0
 51 53  1  0
 53 54  1  0
 53 55  1  0
 55 56  2  0
 26 18  1  0
 34 30  1  0
 56 36  1  0
 26 21  1  0
 55 39  1  0
 49 43  1  0
M  END

