
     RDKit          3D

 53 55  0  0  0  0  0  0  0  0999 V2000
    4.2439   -0.1418   -1.0581 C   0  0  0  0  0  0  0  0  0  0  0  0
    4.8106    0.4266    0.3935 C   0  0  2  0  0  0  0  0  0  0  0  0
    5.7975   -0.8829    0.6461 C   0  0  0  0  0  0  0  0  0  0  0  0
    6.7026   -0.8909   -0.4637 N   0  0  0  0  0  0  0  0  0  0  0  0
    7.8748   -0.3264   -0.6270 N   0  0  0  0  0  0  0  0  0  0  0  0
    8.3673   -0.6152   -1.8610 C   0  0  0  0  0  0  0  0  0  0  0  0
    7.4301   -1.3866   -2.4396 N   0  0  0  0  0  0  0  0  0  0  0  0
    6.4417   -1.5365   -1.5792 N   0  0  0  0  0  0  0  0  0  0  0  0
    3.6096   -0.2178    1.1965 N   0  0  0  0  0  0  0  0  0  0  0  0
    2.3788    0.3284    0.7596 C   0  0  0  0  0  0  0  0  0  0  0  0
    2.2159    1.2526   -0.1878 N   0  0  0  0  0  0  0  0  0  0  0  0
    0.9920    1.7197   -0.5430 C   0  0  0  0  0  0  0  0  0  0  0  0
   -0.1061    1.2148    0.1032 C   0  0  0  0  0  0  0  0  0  0  0  0
   -1.3534    1.6568   -0.2233 C   0  0  0  0  0  0  0  0  0  0  0  0
   -2.4317    1.1105    0.4639 C   0  0  0  0  0  0  0  0  0  0  0  0
   -3.7088    1.5207    0.1739 O   0  0  0  0  0  0  0  0  0  0  0  0
   -4.6460    0.6035   -0.2741 C   0  0  0  0  0  0  0  0  0  0  0  0
   -4.3417   -0.7347   -0.4446 C   0  0  0  0  0  0  0  0  0  0  0  0
   -5.2570   -1.6651   -0.8888 C   0  0  0  0  0  0  0  0  0  0  0  0
   -6.5336   -1.2265   -1.1730 C   0  0  0  0  0  0  0  0  0  0  0  0
   -7.5010   -2.0602   -1.6136 F   0  0  0  0  0  0  0  0  0  0  0  0
   -6.8471    0.0934   -1.0087 C   0  0  0  0  0  0  0  0  0  0  0  0
   -5.9333    1.0176   -0.5661 C   0  0  0  0  0  0  0  0  0  0  0  0
   -6.2221    2.3235   -0.3974 F   0  0  0  0  0  0  0  0  0  0  0  0
   -2.2373    0.1621    1.4332 C   0  0  0  0  0  0  0  0  0  0  0  0
   -3.2336   -0.3277    2.0526 O   0  0  0  0  0  0  0  0  0  0  0  0
   -1.0011   -0.2651    1.7454 N   0  0  0  0  0  0  0  0  0  0  0  0
   -0.8252   -1.2719    2.7776 C   0  0  0  0  0  0  0  0  0  0  0  0
    0.0421    0.2671    1.0767 C   0  0  0  0  0  0  0  0  0  0  0  0
    1.2720   -0.1480    1.3769 N   0  0  0  0  0  0  0  0  0  0  0  0
    6.4195    1.6596    1.0523 N   0  0  0  0  0  0  0  0  0  0  0  0
    6.1939    0.3423    1.4958 C   0  0  0  0  0  0  0  0  0  0  0  0
    6.7357   -0.1011    2.6032 N   0  0  0  0  0  4  0  0  0  0  0  0
    5.3701   -0.6046    0.7994 N   0  0  0  0  0  0  0  0  0  0  0  0
    5.1838   -1.9474    1.3274 C   0  0  0  0  0  0  0  0  0  0  0  0
    4.2220   -2.6726    0.3917 C   0  0  0  0  0  0  0  0  0  0  0  0
    2.9005   -1.8704    0.3809 C   0  0  0  0  0  0  0  0  0  0  0  0
    3.3101   -0.5124   -0.1475 C   0  0  0  0  0  0  0  0  0  0  0  0
    2.2280    0.4138   -0.2018 N   0  0  0  0  0  0  0  0  0  0  0  0
    1.0378    0.2068   -0.9351 C   0  0  0  0  0  0  0  0  0  0  0  0
    0.8350   -0.7754   -1.5790 O   0  0  0  0  0  0  0  0  0  0  0  0
    0.0481    1.4358   -0.7746 C   0  0  2  0  0  0  0  0  0  0  0  0
   -0.4891    1.0184    0.6991 C   0  0  0  0  0  0  0  0  0  0  0  0
   -0.6304   -0.3152    0.8060 O   0  0  0  0  0  0  0  0  0  0  0  0
   -1.1274    0.8394   -1.5860 N   0  0  0  0  0  0  0  0  0  0  0  0
   -2.4214    0.9075   -1.0275 C   0  0  0  0  0  0  0  0  0  0  0  0
   -2.5391    1.4586    0.1080 O   0  0  0  0  0  0  0  0  0  0  0  0
   -3.6564    0.3862   -1.6564 C   0  0  0  0  0  0  0  0  0  0  0  0
   -4.7715    0.5543   -0.6909 C   0  0  0  0  0  0  0  0  0  0  0  0
   -6.0900    0.0988   -1.1126 C   0  0  0  0  0  0  0  0  0  0  0  0
   -7.2127    0.2275   -0.2139 C   0  0  0  0  0  0  0  0  0  0  0  0
   -8.4536   -0.2313   -0.6641 O   0  0  0  0  0  1  0  0  0  0  0  0
   -7.0929    0.7282    0.9254 O   0  0  0  0  0  0  0  0  0  0  0  0
  2  1  1  6
  2  3  1  0
  3  4  1  0
  4  5  1  0
  5  6  2  0
  6  7  1  0
  7  8  2  0
  2  9  1  0
  9 10  1  0
 10 11  2  0
 11 12  1  0
 12 13  2  0
 13 14  1  0
 14 15  2  0
 15 16  1  0
 16 17  1  0
 17 18  2  0
 18 19  1  0
 19 20  2  0
 20 21  1  0
 20 22  1  0
 22 23  2  0
 23 24  1  0
 15 25  1  0
 25 26  2  0
 25 27  1  0
 27 28  1  0
 27 29  1  0
 29 30  2  0
 31 32  1  0
 32 33  2  0
 32 34  1  0
 34 35  1  0
 35 36  1  0
 36 37  1  0
 37 38  1  0
 38 39  1  0
 39 40  1  0
 40 41  2  0
 40 42  1  0
 42 43  1  1
 43 44  1  0
 42 45  1  0
 45 46  1  0
 46 47  2  0
 46 48  1  0
 48 49  1  0
 49 50  1  0
 50 51  1  0
 51 52  1  0
 51 53  2  0
  8  4  1  0
 30 10  1  0
 29 13  1  0
 23 17  1  0
M  CHG  1  33   1
M  RAD  1  52   2
M  END

