
     RDKit          3D

 11 10  0  0  0  0  0  0  0  0999 V2000
   -2.9635   -1.3488   -0.5220 C   0  0  0  0  0  0  0  0  0  0  0  0
   -2.2732   -0.2235   -0.0187 N   0  0  0  0  0  0  0  0  0  0  0  0
   -1.0676   -0.2729    0.6925 C   0  0  0  0  0  0  0  0  0  0  0  0
   -0.6420   -1.4365    0.8824 O   0  0  0  0  0  0  0  0  0  0  0  0
   -0.2762    0.8784    1.2211 C   0  0  2  0  0  0  0  0  0  0  0  0
   -0.5254    1.9996    0.0562 C   0  0  0  0  0  0  0  0  0  0  0  0
   -0.1251    1.4263   -1.1475 O   0  0  0  0  0  0  0  0  0  0  0  0
    1.1221    0.6833    1.0916 N   0  0  0  0  0  0  0  0  0  0  0  0
    1.8991   -0.2514    0.4936 C   0  0  0  0  0  0  0  0  0  0  0  0
    3.4203   -0.2041    0.4876 C   0  0  0  0  0  0  0  0  0  0  0  0
    1.4316   -1.2504   -0.1347 O   0  0  0  0  0  0  0  0  0  0  0  0
  1  2  1  0
  2  3  1  0
  3  4  2  0
  3  5  1  0
  5  6  1  6
  6  7  1  0
  5  8  1  0
  8  9  1  0
  9 10  1  0
  9 11  2  0
M  END

