
     RDKit          3D

 23 23  0  0  0  0  0  0  0  0999 V2000
   -0.1544   -3.2294    1.0102 C   0  0  0  0  0  0  0  0  0  0  0  0
    0.7085   -1.9672    0.9136 C   0  0  0  0  0  0  0  0  0  0  0  0
    2.0232   -2.3013    1.4548 C   0  0  0  0  0  0  0  0  0  0  0  0
    0.8619   -1.7078   -0.6939 C   0  0  2  0  0  0  0  0  0  0  0  0
    1.8044   -0.4531   -0.5796 N   0  0  0  0  0  0  0  0  0  0  0  0
    3.1688   -0.6548   -0.4088 C   0  0  0  0  0  0  0  0  0  0  0  0
    3.7176   -1.8075   -0.3916 O   0  0  0  0  0  0  0  0  0  0  0  0
    4.0893    0.4959   -0.2012 C   0  0  0  0  0  0  0  0  0  0  0  0
    5.4948    0.0405    0.0636 C   0  0  0  0  0  0  0  0  0  0  0  0
    6.3433    1.1768    0.3520 C   0  0  0  0  0  0  0  0  0  0  0  0
    7.7683    0.9444    0.5806 N   0  0  0  0  0  0  0  0  0  0  0  0
    5.9357    2.3440    0.4100 O   0  0  0  0  0  0  0  0  0  0  0  0
   -0.4708   -0.8083   -0.7851 C   0  0  0  0  0  0  0  0  0  0  0  0
   -1.0680   -1.0341   -1.8954 O   0  0  0  0  0  0  0  0  0  0  0  0
   -0.8722    0.0429    0.1515 N   0  0  0  0  0  0  0  0  0  0  0  0
   -2.0989    0.8019    0.0447 C   0  0  0  0  0  0  0  0  0  0  0  0
   -3.2665   -0.1716    0.1273 C   0  0  0  0  0  0  0  0  0  0  0  0
   -4.5026    0.6393    0.0612 C   0  0  0  0  0  0  0  0  0  0  0  0
   -5.2353    0.6704   -1.0842 C   0  0  0  0  0  0  0  0  0  0  0  0
   -6.3998    1.4071   -1.1532 C   0  0  0  0  0  0  0  0  0  0  0  0
   -6.8402    2.1282   -0.0631 C   0  0  0  0  0  0  0  0  0  0  0  0
   -6.0863    2.0998    1.1265 C   0  0  0  0  0  0  0  0  0  0  0  0
   -4.9209    1.3438    1.1432 C   0  0  0  0  0  0  0  0  0  0  0  0
  1  2  1  0
  2  3  1  0
  2  4  1  0
  4  5  1  1
  5  6  1  0
  6  7  2  0
  6  8  1  0
  8  9  1  0
  9 10  1  0
 10 11  1  0
 10 12  2  0
  4 13  1  0
 13 14  2  0
 13 15  1  0
 15 16  1  0
 16 17  1  0
 17 18  1  0
 18 19  2  0
 19 20  1  0
 20 21  2  0
 21 22  1  0
 22 23  2  0
 23 18  1  0
M  END

