
     RDKit          3D

 19 18  0  0  0  0  0  0  0  0999 V2000
    0.0869   -4.4401   -0.5129 C   0  0  0  0  0  0  0  0  0  0  0  0
   -0.2871   -3.1048   -0.0509 C   0  0  0  0  0  0  0  0  0  0  0  0
   -1.4671   -2.8861    0.3018 O   0  0  0  0  0  0  0  0  0  0  0  0
    0.5945   -2.0860    0.0138 N   0  0  0  0  0  0  0  0  0  0  0  0
    0.1697   -0.6290    0.5093 C   0  0  1  0  0  0  0  0  0  0  0  0
    1.1538    0.1042   -0.6681 C   0  0  0  0  0  0  0  0  0  0  0  0
    2.5105   -0.3293   -0.4328 C   0  0  0  0  0  0  0  0  0  0  0  0
    3.2092   -0.0250    0.8184 C   0  0  0  0  0  0  0  0  0  0  0  0
    3.3355    1.3703    1.0472 N   0  0  0  0  0  0  0  0  0  0  0  0
    4.0211    2.2093    0.1158 C   0  0  0  0  0  0  0  0  0  0  0  0
    4.1514    3.5833    0.3414 N   0  0  0  0  0  0  0  0  0  0  0  0
    4.5253    1.6477   -0.9513 N   0  0  0  0  0  4  0  0  0  0  0  0
   -1.1906   -0.4969   -0.3585 C   0  0  0  0  0  0  0  0  0  0  0  0
   -1.3297   -0.9778   -1.4534 O   0  0  0  0  0  0  0  0  0  0  0  0
   -2.2519    0.2178    0.2259 N   0  0  0  0  0  0  0  0  0  0  0  0
   -3.5458    0.4103   -0.4568 C   0  0  0  0  0  0  0  0  0  0  0  0
   -4.3335    1.2849    0.7471 C   0  0  1  0  0  0  0  0  0  0  0  0
   -3.7384    2.7517    0.1612 C   0  0  0  0  0  0  0  0  0  0  0  0
   -5.6140    1.3954   -0.1021 O   0  0  0  0  0  0  0  0  0  0  0  0
  1  2  1  0
  2  3  2  0
  2  4  1  0
  4  5  1  0
  5  6  1  6
  6  7  1  0
  7  8  1  0
  8  9  1  0
  9 10  1  0
 10 11  1  0
 10 12  2  0
  5 13  1  0
 13 14  2  0
 13 15  1  0
 15 16  1  0
 16 17  1  0
 17 18  1  6
 17 19  1  0
M  CHG  1  12   1
M  END

