
     RDKit          3D

 50 52  0  0  0  0  0  0  0  0999 V2000
   -0.7803    4.1566   -0.3045 C   0  0  0  0  0  0  0  0  0  0  0  0
   -0.7270    2.7597    0.2063 C   0  0  0  0  0  0  0  0  0  0  0  0
   -2.2731    2.3230    0.4319 C   0  0  2  0  0  0  0  0  0  0  0  0
   -2.5580    3.5222    1.5143 C   0  0  0  0  0  0  0  0  0  0  0  0
   -1.9098    1.2450    1.5687 C   0  0  0  0  0  0  0  0  0  0  0  0
   -1.0183    0.2543    0.9715 C   0  0  0  0  0  0  0  0  0  0  0  0
   -0.7341    0.4325   -0.2317 O   0  0  0  0  0  0  0  0  0  0  0  0
   -0.4688   -0.8450    1.6061 N   0  0  0  0  0  0  0  0  0  0  0  0
    0.4674   -1.8397    0.8955 C   0  0  1  0  0  0  0  0  0  0  0  0
   -0.2267   -1.7309   -0.5719 C   0  0  0  0  0  0  0  0  0  0  0  0
   -1.6537   -2.1670   -0.3928 C   0  0  0  0  0  0  0  0  0  0  0  0
   -2.3631   -2.0946   -1.6912 C   0  0  0  0  0  0  0  0  0  0  0  0
   -3.7268   -2.4928   -1.6682 N   0  0  0  0  0  0  0  0  0  0  0  0
   -1.7485   -1.7008   -2.7073 O   0  0  0  0  0  0  0  0  0  0  0  0
    1.6561   -0.8510    0.5345 C   0  0  0  0  0  0  0  0  0  0  0  0
    1.6630    0.3223    0.8197 O   0  0  0  0  0  0  0  0  0  0  0  0
    2.7383   -1.4632   -0.1661 N   0  0  0  0  0  0  0  0  0  0  0  0
    3.8438   -0.5893   -0.5139 C   0  0  0  0  0  0  0  0  0  0  0  0
    4.3778   -0.0446    0.8063 C   0  0  0  0  0  0  0  0  0  0  0  0
    5.4419    0.8034    0.5531 O   0  0  0  0  0  0  0  0  0  0  0  0
    6.1200   -0.0732   -0.9479 C   0  0  0  0  0  0  0  0  0  0  0  0
    4.8545    0.5762   -0.0568 C   0  0  2  0  0  0  0  0  0  0  0  0
    4.7407   -0.8081    0.8828 C   0  0  0  0  0  0  0  0  0  0  0  0
    6.0856   -0.8467    1.4758 N   0  0  0  0  0  0  0  0  0  0  0  0
    6.5188   -0.3198    2.5785 N   0  0  0  0  0  0  0  0  0  0  0  0
    7.8391   -0.6240    2.7106 C   0  0  0  0  0  0  0  0  0  0  0  0
    8.1721   -1.3598    1.6297 N   0  0  0  0  0  0  0  0  0  0  0  0
    7.0878   -1.4811    0.8940 N   0  0  0  0  0  0  0  0  0  0  0  0
    3.7767    0.0488   -1.0864 N   0  0  0  0  0  0  0  0  0  0  0  0
    2.4605    0.4142   -0.6730 C   0  0  0  0  0  0  0  0  0  0  0  0
    2.1865    1.1122    0.4426 N   0  0  0  0  0  0  0  0  0  0  0  0
    0.9333    1.4429    0.8077 C   0  0  0  0  0  0  0  0  0  0  0  0
   -0.1592    1.0716    0.0342 C   0  0  0  0  0  0  0  0  0  0  0  0
   -1.4477    1.4014    0.3928 C   0  0  0  0  0  0  0  0  0  0  0  0
   -2.4865    1.0100   -0.4063 C   0  0  0  0  0  0  0  0  0  0  0  0
   -3.8020    1.3083   -0.1039 O   0  0  0  0  0  0  0  0  0  0  0  0
   -4.7045    0.2911    0.0835 C   0  0  0  0  0  0  0  0  0  0  0  0
   -4.3340   -1.0200   -0.0219 C   0  0  0  0  0  0  0  0  0  0  0  0
   -5.2151   -2.0536    0.1604 C   0  0  0  0  0  0  0  0  0  0  0  0
   -6.5397   -1.7758    0.4645 C   0  0  0  0  0  0  0  0  0  0  0  0
   -7.3843   -2.8025    0.6386 F   0  0  0  0  0  0  0  0  0  0  0  0
   -6.9171   -0.4725    0.5713 C   0  0  0  0  0  0  0  0  0  0  0  0
   -6.0311    0.5520    0.3878 C   0  0  0  0  0  0  0  0  0  0  0  0
   -6.4010    1.8423    0.4926 F   0  0  0  0  0  0  0  0  0  0  0  0
   -2.1915    0.2979   -1.5421 C   0  0  0  0  0  0  0  0  0  0  0  0
   -3.0974   -0.0918   -2.3192 O   0  0  0  0  0  0  0  0  0  0  0  0
   -0.9279   -0.0116   -1.8707 N   0  0  0  0  0  0  0  0  0  0  0  0
   -0.6547   -0.7639   -3.0765 C   0  0  0  0  0  0  0  0  0  0  0  0
    0.1248    0.3555   -1.1099 C   0  0  0  0  0  0  0  0  0  0  0  0
    1.3933    0.0490   -1.4327 N   0  0  0  0  0  0  0  0  0  0  0  0
  1  2  1  0
  2  3  1  0
  3  4  1  1
  3  5  1  0
  5  6  1  0
  6  7  2  0
  6  8  1  0
  8  9  1  0
  9 10  1  6
 10 11  1  0
 11 12  1  0
 12 13  1  0
 12 14  2  0
  9 15  1  0
 15 16  2  0
 15 17  1  0
 17 18  1  0
 18 19  1  0
 19 20  1  0
 22 21  1  6
 22 23  1  0
 23 24  1  0
 24 25  1  0
 25 26  2  0
 26 27  1  0
 27 28  2  0
 22 29  1  0
 29 30  1  0
 30 31  2  0
 31 32  1  0
 32 33  2  0
 33 34  1  0
 34 35  2  0
 35 36  1  0
 36 37  1  0
 37 38  2  0
 38 39  1  0
 39 40  2  0
 40 41  1  0
 40 42  1  0
 42 43  2  0
 43 44  1  0
 35 45  1  0
 45 46  2  0
 45 47  1  0
 47 48  1  0
 47 49  1  0
 49 50  2  0
 28 24  1  0
 50 30  1  0
 49 33  1  0
 43 37  1  0
M  END

