
     RDKit          3D

 50 52  0  0  0  0  0  0  0  0999 V2000
   -3.9299    4.0050   -0.2029 C   0  0  0  0  0  0  0  0  0  0  0  0
   -4.7489    2.9694   -0.9579 C   0  0  0  0  0  0  0  0  0  0  0  0
   -3.7078    1.6907   -1.1480 C   0  0  2  0  0  0  0  0  0  0  0  0
   -4.8378    0.7878   -1.9559 C   0  0  0  0  0  0  0  0  0  0  0  0
   -4.1465    1.0299    0.3099 C   0  0  0  0  0  0  0  0  0  0  0  0
   -3.2960   -0.1485    0.3090 N   0  0  0  0  0  0  0  0  0  0  0  0
   -1.9154    0.0499    0.2424 C   0  0  0  0  0  0  0  0  0  0  0  0
   -1.4207    1.1641    0.1866 O   0  0  0  0  0  0  0  0  0  0  0  0
   -1.0246   -1.2645    0.2436 C   0  0  2  0  0  0  0  0  0  0  0  0
   -1.0384   -1.4440    1.9161 C   0  0  0  0  0  0  0  0  0  0  0  0
   -2.1896   -2.0973    2.1998 O   0  0  0  0  0  0  0  0  0  0  0  0
    0.3606   -0.5062    0.1606 N   0  0  0  0  0  0  0  0  0  0  0  0
    1.5296   -1.2223    0.1729 C   0  0  0  0  0  0  0  0  0  0  0  0
    1.4226   -2.4928    0.2528 O   0  0  0  0  0  0  0  0  0  0  0  0
    2.8481   -0.5435    0.0965 C   0  0  0  0  0  0  0  0  0  0  0  0
    3.9542   -1.5736    0.1324 C   0  0  0  0  0  0  0  0  0  0  0  0
    5.2842   -0.8992    0.0558 C   0  0  0  0  0  0  0  0  0  0  0  0
    5.4818   -0.1082   -1.1587 C   0  0  0  0  0  0  0  0  0  0  0  0
    6.7246    0.5728   -1.3177 N   0  0  0  0  0  0  0  0  0  0  0  0
    4.6499    0.0304   -2.0871 O   0  0  0  0  0  0  0  0  0  0  0  0
    4.0192   -1.2834    0.5845 C   0  0  0  0  0  0  0  0  0  0  0  0
    4.3989   -1.2912   -1.0349 C   0  0  2  0  0  0  0  0  0  0  0  0
    5.8929   -0.5970   -0.9027 C   0  0  0  0  0  0  0  0  0  0  0  0
    5.8240    0.6614   -0.3329 N   0  0  0  0  0  0  0  0  0  0  0  0
    5.6683    1.8314   -0.9686 N   0  0  0  0  0  0  0  0  0  0  0  0
    5.6556    2.7912   -0.0279 C   0  0  0  0  0  0  0  0  0  0  0  0
    5.8020    2.2208    1.1801 N   0  0  0  0  0  0  0  0  0  0  0  0
    5.9021    0.9321    0.9729 N   0  0  0  0  0  0  0  0  0  0  0  0
    3.6676    0.0887   -1.3066 N   0  0  0  0  0  0  0  0  0  0  0  0
    2.3028    0.0268   -0.9906 C   0  0  0  0  0  0  0  0  0  0  0  0
    1.5647    1.1368   -1.1766 N   0  0  0  0  0  0  0  0  0  0  0  0
    0.2364    1.1792   -0.9011 C   0  0  0  0  0  0  0  0  0  0  0  0
   -0.4008    0.0459   -0.4088 C   0  0  0  0  0  0  0  0  0  0  0  0
   -1.7312    0.0124   -0.1091 C   0  0  0  0  0  0  0  0  0  0  0  0
   -2.2531   -1.1830    0.3775 C   0  0  0  0  0  0  0  0  0  0  0  0
   -3.5926   -1.3098    0.7083 O   0  0  0  0  0  0  0  0  0  0  0  0
   -4.4163   -0.2060    0.5428 C   0  0  0  0  0  0  0  0  0  0  0  0
   -5.0760    0.3231    1.6229 C   0  0  0  0  0  0  0  0  0  0  0  0
   -5.9096    1.4295    1.4917 C   0  0  0  0  0  0  0  0  0  0  0  0
   -6.0436    1.9704    0.2303 C   0  0  0  0  0  0  0  0  0  0  0  0
   -6.8443    3.0485    0.0519 F   0  0  0  0  0  0  0  0  0  0  0  0
   -5.3820    1.4479   -0.8803 C   0  0  0  0  0  0  0  0  0  0  0  0
   -4.5538    0.3384   -0.7153 C   0  0  0  0  0  0  0  0  0  0  0  0
   -3.8942   -0.2040   -1.7487 F   0  0  0  0  0  0  0  0  0  0  0  0
   -1.4535   -2.2985    0.5519 C   0  0  0  0  0  0  0  0  0  0  0  0
   -1.9459   -3.3600    0.9903 O   0  0  0  0  0  0  0  0  0  0  0  0
   -0.1516   -2.2388    0.2502 N   0  0  0  0  0  0  0  0  0  0  0  0
    0.7167   -3.3938    0.4220 C   0  0  0  0  0  0  0  0  0  0  0  0
    0.3498   -1.0730   -0.2227 C   0  0  0  0  0  0  0  0  0  0  0  0
    1.6477   -1.0459   -0.5134 N   0  0  0  0  0  0  0  0  0  0  0  0
  1  2  1  0
  2  3  1  0
  3  4  1  6
  3  5  1  0
  5  6  1  0
  6  7  1  0
  7  8  2  0
  7  9  1  0
  9 10  1  1
 10 11  1  0
  9 12  1  0
 12 13  1  0
 13 14  2  0
 13 15  1  0
 15 16  1  0
 16 17  1  0
 17 18  1  0
 18 19  1  0
 18 20  2  0
 22 21  1  1
 22 23  1  0
 23 24  1  0
 24 25  1  0
 25 26  2  0
 26 27  1  0
 27 28  2  0
 22 29  1  0
 29 30  1  0
 30 31  2  0
 31 32  1  0
 32 33  2  0
 33 34  1  0
 34 35  2  0
 35 36  1  0
 36 37  1  0
 37 38  2  0
 38 39  1  0
 39 40  2  0
 40 41  1  0
 40 42  1  0
 42 43  2  0
 43 44  1  0
 35 45  1  0
 45 46  2  0
 45 47  1  0
 47 48  1  0
 47 49  1  0
 49 50  2  0
 28 24  1  0
 50 30  1  0
 49 33  1  0
 43 37  1  0
M  END

