
     RDKit          3D

 47 49  0  0  0  0  0  0  0  0999 V2000
   -4.1335   -1.3072    0.5573 C   0  0  0  0  0  0  0  0  0  0  0  0
   -4.6770    0.0419    0.3363 C   0  0  0  0  0  0  0  0  0  0  0  0
   -6.1368    0.0244   -0.1266 C   0  0  0  0  0  0  0  0  0  0  0  0
   -3.8888    1.1181   -0.2157 C   0  0  0  0  0  0  0  0  0  0  0  0
   -2.7067    1.5197    0.5028 C   0  0  0  0  0  0  0  0  0  0  0  0
   -1.6500    0.5093    0.5695 C   0  0  0  0  0  0  0  0  0  0  0  0
   -1.7026   -0.6015    0.0240 O   0  0  0  0  0  0  0  0  0  0  0  0
   -0.5011    0.8654    1.3163 N   0  0  0  0  0  0  0  0  0  0  0  0
    0.7030   -0.0716    1.4691 C   0  0  1  0  0  0  0  0  0  0  0  0
    0.0635   -1.4005    0.7815 C   0  0  0  0  0  0  0  0  0  0  0  0
    1.5003    0.3993    0.1797 C   0  0  0  0  0  0  0  0  0  0  0  0
    1.1241    1.2380   -0.5932 O   0  0  0  0  0  0  0  0  0  0  0  0
    2.7286   -0.2257   -0.0493 N   0  0  0  0  0  0  0  0  0  0  0  0
    3.4777    0.2001   -1.2340 C   0  0  0  0  0  0  0  0  0  0  0  0
    4.7358   -0.6297   -1.2166 C   0  0  0  0  0  0  0  0  0  0  0  0
    5.6057   -0.2847   -2.4047 C   0  0  0  0  0  0  0  0  0  0  0  0
    5.4577   -0.3297    0.1035 C   0  0  0  0  0  0  0  0  0  0  0  0
   -3.8286   -0.3175   -0.1135 C   0  0  0  0  0  0  0  0  0  0  0  0
   -4.1156    0.9012    0.9840 C   0  0  1  0  0  0  0  0  0  0  0  0
   -5.4245    0.1754    1.7000 C   0  0  0  0  0  0  0  0  0  0  0  0
   -6.4197   -0.0256    0.7276 N   0  0  0  0  0  0  0  0  0  0  0  0
   -6.5447   -1.1073   -0.0262 N   0  0  0  0  0  0  0  0  0  0  0  0
   -7.5945   -0.9943   -0.8577 C   0  0  0  0  0  0  0  0  0  0  0  0
   -8.1281    0.1965   -0.6027 N   0  0  0  0  0  0  0  0  0  0  0  0
   -7.4107    0.7641    0.3510 N   0  0  0  0  0  0  0  0  0  0  0  0
   -3.0962    0.3067    2.0382 N   0  0  0  0  0  0  0  0  0  0  0  0
   -1.7594    0.2002    1.5800 C   0  0  0  0  0  0  0  0  0  0  0  0
   -0.8020   -0.2894    2.3820 N   0  0  0  0  0  0  0  0  0  0  0  0
    0.4693   -0.3998    1.9713 C   0  0  0  0  0  0  0  0  0  0  0  0
    0.7796    0.0046    0.6916 C   0  0  0  0  0  0  0  0  0  0  0  0
    2.0614   -0.0714    0.1808 C   0  0  0  0  0  0  0  0  0  0  0  0
    2.3203    0.3468   -1.1078 C   0  0  0  0  0  0  0  0  0  0  0  0
    3.6140    0.2668   -1.6142 O   0  0  0  0  0  0  0  0  0  0  0  0
    4.6578   -0.2278   -0.8469 C   0  0  0  0  0  0  0  0  0  0  0  0
    5.7361    0.5941   -0.5883 C   0  0  0  0  0  0  0  0  0  0  0  0
    6.8088    0.1581    0.1712 C   0  0  0  0  0  0  0  0  0  0  0  0
    6.7500   -1.1279    0.6544 C   0  0  0  0  0  0  0  0  0  0  0  0
    7.7799   -1.6175    1.4121 F   0  0  0  0  0  0  0  0  0  0  0  0
    5.6680   -1.9481    0.3931 C   0  0  0  0  0  0  0  0  0  0  0  0
    4.5966   -1.5135   -0.3652 C   0  0  0  0  0  0  0  0  0  0  0  0
    3.5397   -2.3283   -0.6150 F   0  0  0  0  0  0  0  0  0  0  0  0
    1.3231    0.8471   -1.9167 C   0  0  0  0  0  0  0  0  0  0  0  0
    1.5694    1.2326   -3.1089 O   0  0  0  0  0  0  0  0  0  0  0  0
    0.0791    0.9193   -1.4166 N   0  0  0  0  0  0  0  0  0  0  0  0
   -0.9902    1.4439   -2.2516 C   0  0  0  0  0  0  0  0  0  0  0  0
   -0.1942    0.5095   -0.1430 C   0  0  0  0  0  0  0  0  0  0  0  0
   -1.4447    0.5903    0.3371 N   0  0  0  0  0  0  0  0  0  0  0  0
  1  2  1  0
  2  3  1  0
  2  4  1  0
  4  5  1  0
  5  6  1  0
  6  7  2  0
  6  8  1  0
  8  9  1  0
  9 10  1  6
  9 11  1  0
 11 12  2  0
 11 13  1  0
 13 14  1  0
 14 15  1  0
 15 16  1  0
 15 17  1  0
 19 18  1  1
 19 20  1  0
 20 21  1  0
 21 22  1  0
 22 23  2  0
 23 24  1  0
 24 25  2  0
 19 26  1  0
 26 27  1  0
 27 28  2  0
 28 29  1  0
 29 30  2  0
 30 31  1  0
 31 32  2  0
 32 33  1  0
 33 34  1  0
 34 35  2  0
 35 36  1  0
 36 37  2  0
 37 38  1  0
 37 39  1  0
 39 40  2  0
 40 41  1  0
 32 42  1  0
 42 43  2  0
 42 44  1  0
 44 45  1  0
 44 46  1  0
 46 47  2  0
 25 21  1  0
 47 27  1  0
 46 30  1  0
 40 34  1  0
M  END

