
     RDKit          3D

 20 19  0  0  0  0  0  0  0  0999 V2000
    5.3456   -1.4899    1.0888 C   0  0  0  0  0  0  0  0  0  0  0  0
    3.7157   -1.6952    0.8477 C   0  0  1  0  0  0  0  0  0  0  0  0
    3.3923   -0.4848    1.6973 O   0  0  0  0  0  0  0  0  0  0  0  0
    3.7687   -0.8301   -0.5681 C   0  0  0  0  0  0  0  0  0  0  0  0
    2.4833   -0.2348   -0.7305 N   0  0  0  0  0  0  0  0  0  0  0  0
    1.2602   -0.8575   -0.8218 C   0  0  0  0  0  0  0  0  0  0  0  0
    1.1771   -2.0870   -0.7624 O   0  0  0  0  0  0  0  0  0  0  0  0
   -0.0717   -0.0632   -1.0005 C   0  0  2  0  0  0  0  0  0  0  0  0
    0.0062    0.7480    0.4345 C   0  0  0  0  0  0  0  0  0  0  0  0
    1.2954    1.5054    0.2671 C   0  0  0  0  0  0  0  0  0  0  0  0
    1.2909    2.4545   -0.9098 C   0  0  0  0  0  0  0  0  0  0  0  0
    0.1908    3.4877   -0.7686 C   0  0  0  0  0  0  0  0  0  0  0  0
    0.4362    4.2120    0.4435 N   0  0  0  0  0  4  0  0  0  0  0  0
   -1.0076   -1.1553   -0.4640 N   0  0  0  0  0  0  0  0  0  0  0  0
   -2.3246   -0.6990   -0.3603 C   0  0  0  0  0  0  0  0  0  0  0  0
   -2.5162    0.4813   -0.7189 O   0  0  0  0  0  0  0  0  0  0  0  0
   -3.4801   -1.4728    0.1275 C   0  0  0  0  0  0  0  0  0  0  0  0
   -4.7310   -0.4285    0.0783 C   0  0  1  0  0  0  0  0  0  0  0  0
   -5.7940   -1.5256    0.6564 C   0  0  0  0  0  0  0  0  0  0  0  0
   -4.4372    0.1347    1.4637 O   0  0  0  0  0  0  0  0  0  0  0  0
  2  1  1  1
  2  3  1  0
  2  4  1  0
  4  5  1  0
  5  6  1  0
  6  7  2  0
  6  8  1  0
  8  9  1  1
  9 10  1  0
 10 11  1  0
 11 12  1  0
 12 13  1  0
  8 14  1  0
 14 15  1  0
 15 16  2  0
 15 17  1  0
 17 18  1  0
 18 19  1  1
 18 20  1  0
M  CHG  1  13   1
M  END

