
     RDKit          3D

 51 53  0  0  0  0  0  0  0  0999 V2000
   -3.9099    3.6397   -0.8515 C   0  0  0  0  0  0  0  0  0  0  0  0
   -2.9727    2.5466   -0.5135 C   0  0  0  0  0  0  0  0  0  0  0  0
   -2.9844    2.1967    0.9017 C   0  0  0  0  0  0  0  0  0  0  0  0
   -2.1370    2.0148   -1.4968 C   0  0  0  0  0  0  0  0  0  0  0  0
   -1.2016    0.9426   -1.3160 N   0  0  0  0  0  0  0  0  0  0  0  0
   -1.5401   -0.3204   -0.8551 C   0  0  0  0  0  0  0  0  0  0  0  0
   -2.7487   -0.4706   -0.5357 O   0  0  0  0  0  0  0  0  0  0  0  0
   -0.6653   -1.5538   -0.6863 C   0  0  2  0  0  0  0  0  0  0  0  0
   -1.4587   -2.2748    0.6220 C   0  0  0  0  0  0  0  0  0  0  0  0
   -2.8328   -2.5107    0.3833 C   0  0  0  0  0  0  0  0  0  0  0  0
   -3.5256   -3.3348   -0.5658 N   0  0  0  0  0  0  0  0  0  0  0  0
   -3.6199   -1.8361    1.1993 O   0  0  0  0  0  0  0  0  0  0  0  0
    0.3561   -0.9575    0.4345 N   0  0  0  0  0  0  0  0  0  0  0  0
    1.6809   -0.9105   -0.0949 C   0  0  0  0  0  0  0  0  0  0  0  0
    1.8739   -1.2087   -1.2714 O   0  0  0  0  0  0  0  0  0  0  0  0
    2.8042   -0.4876    0.8017 C   0  0  0  0  0  0  0  0  0  0  0  0
    4.1390   -0.7928    0.2042 C   0  0  0  0  0  0  0  0  0  0  0  0
    4.4527   -0.0237   -1.0154 C   0  0  0  0  0  0  0  0  0  0  0  0
    4.6819    1.3928   -0.5733 C   0  0  0  0  0  0  0  0  0  0  0  0
    3.7985    2.3901   -0.7958 O   0  0  0  0  0  1  0  0  0  0  0  0
    5.8096    1.5587    0.0441 O   0  0  0  0  0  0  0  0  0  0  0  0
    6.5072   -1.1622   -0.0616 C   0  0  0  0  0  0  0  0  0  0  0  0
    5.1082   -1.6641   -0.8003 C   0  0  2  0  0  0  0  0  0  0  0  0
    4.9892   -0.3930   -1.8455 C   0  0  0  0  0  0  0  0  0  0  0  0
    4.8989    0.8184   -1.1465 N   0  0  0  0  0  0  0  0  0  0  0  0
    3.8490    1.5136   -0.6847 N   0  0  0  0  0  0  0  0  0  0  0  0
    4.2709    2.6334   -0.0693 C   0  0  0  0  0  0  0  0  0  0  0  0
    5.6031    2.6341   -0.1498 N   0  0  0  0  0  0  0  0  0  0  0  0
    5.9450    1.5535   -0.7893 N   0  0  0  0  0  0  0  0  0  0  0  0
    4.1709   -1.0037    0.2856 N   0  0  0  0  0  0  0  0  0  0  0  0
    2.8193   -1.2536   -0.0552 C   0  0  0  0  0  0  0  0  0  0  0  0
    2.3811   -1.9354   -1.1187 N   0  0  0  0  0  0  0  0  0  0  0  0
    1.0524   -2.1175   -1.3528 C   0  0  0  0  0  0  0  0  0  0  0  0
    0.1316   -1.5859   -0.4718 C   0  0  0  0  0  0  0  0  0  0  0  0
   -1.2346   -1.7171   -0.6238 C   0  0  0  0  0  0  0  0  0  0  0  0
   -2.1162   -1.1565    0.3017 C   0  0  0  0  0  0  0  0  0  0  0  0
   -3.4868   -1.2684    0.1805 O   0  0  0  0  0  0  0  0  0  0  0  0
   -4.2974   -0.1278    0.0677 C   0  0  0  0  0  0  0  0  0  0  0  0
   -3.7475    1.1222    0.0753 C   0  0  0  0  0  0  0  0  0  0  0  0
   -4.4725    2.2844   -0.0304 C   0  0  0  0  0  0  0  0  0  0  0  0
   -5.8284    2.1902   -0.1508 C   0  0  0  0  0  0  0  0  0  0  0  0
   -6.5362    3.3408   -0.2546 F   0  0  0  0  0  0  0  0  0  0  0  0
   -6.4290    0.9453   -0.1631 C   0  0  0  0  0  0  0  0  0  0  0  0
   -5.6681   -0.2274   -0.0538 C   0  0  0  0  0  0  0  0  0  0  0  0
   -6.2297   -1.4512   -0.0633 F   0  0  0  0  0  0  0  0  0  0  0  0
   -1.6426   -0.4565    1.3925 C   0  0  0  0  0  0  0  0  0  0  0  0
   -2.4143    0.0664    2.2536 O   0  0  0  0  0  0  0  0  0  0  0  0
   -0.3093   -0.3451    1.5144 N   0  0  0  0  0  0  0  0  0  0  0  0
    0.2140    0.3891    2.6573 C   0  0  0  0  0  0  0  0  0  0  0  0
    0.5715   -0.8797    0.6302 C   0  0  0  0  0  0  0  0  0  0  0  0
    1.9002   -0.7460    0.7878 N   0  0  0  0  0  0  0  0  0  0  0  0
  1  2  1  0
  2  3  1  0
  2  4  1  0
  4  5  1  0
  5  6  1  0
  6  7  2  0
  6  8  1  0
  8  9  1  1
  9 10  1  0
 10 11  1  0
 10 12  2  0
  8 13  1  0
 13 14  1  0
 14 15  2  0
 14 16  1  0
 16 17  1  0
 17 18  1  0
 18 19  1  0
 19 20  1  0
 19 21  2  0
 23 22  1  1
 23 24  1  0
 24 25  1  0
 25 26  1  0
 26 27  2  0
 27 28  1  0
 28 29  2  0
 23 30  1  0
 30 31  1  0
 31 32  2  0
 32 33  1  0
 33 34  2  0
 34 35  1  0
 35 36  2  0
 36 37  1  0
 37 38  1  0
 38 39  2  0
 39 40  1  0
 40 41  2  0
 41 42  1  0
 41 43  1  0
 43 44  2  0
 44 45  1  0
 36 46  1  0
 46 47  2  0
 46 48  1  0
 48 49  1  0
 48 50  1  0
 50 51  2  0
 29 25  1  0
 51 31  1  0
 50 34  1  0
 44 38  1  0
M  RAD  1  20   2
M  END

