
     RDKit          3D

 54 56  0  0  0  0  0  0  0  0999 V2000
   -5.8350   -3.9069    1.3325 C   0  0  0  0  0  0  0  0  0  0  0  0
   -4.6067   -3.1312    1.4628 C   0  0  0  0  0  0  0  0  0  0  0  0
   -4.8316   -1.6846    0.6207 C   0  0  2  0  0  0  0  0  0  0  0  0
   -5.0800   -2.3678   -0.8247 C   0  0  0  0  0  0  0  0  0  0  0  0
   -3.2403   -1.4780    0.4786 C   0  0  0  0  0  0  0  0  0  0  0  0
   -2.9188   -0.2787   -0.3245 C   0  0  0  0  0  0  0  0  0  0  0  0
   -3.7025    0.1379   -1.1962 O   0  0  0  0  0  0  0  0  0  0  0  0
   -1.6983    0.4128   -0.1199 N   0  0  0  0  0  0  0  0  0  0  0  0
   -1.4534    1.6161   -1.1808 C   0  0  1  0  0  0  0  0  0  0  0  0
   -1.9522    2.7860   -0.1944 C   0  0  0  0  0  0  0  0  0  0  0  0
   -1.2751    2.9748    1.0378 C   0  0  0  0  0  0  0  0  0  0  0  0
   -1.8565    4.1319    1.8781 C   0  0  0  0  0  0  0  0  0  0  0  0
   -0.7392    1.8987    1.8600 C   0  0  0  0  0  0  0  0  0  0  0  0
    0.1065    1.6330   -0.8536 C   0  0  0  0  0  0  0  0  0  0  0  0
    0.6340    2.4633   -0.2200 O   0  0  0  0  0  0  0  0  0  0  0  0
    0.7769    0.4568   -1.4344 N   0  0  0  0  0  0  0  0  0  0  0  0
    2.2137    0.2726   -1.1573 C   0  0  0  0  0  0  0  0  0  0  0  0
    2.2994    0.2539    0.4013 C   0  0  0  0  0  0  0  0  0  0  0  0
    3.7642   -0.0525    0.7334 C   0  0  0  0  0  0  0  0  0  0  0  0
    3.9635   -1.4737    0.1393 C   0  0  0  0  0  0  0  0  0  0  0  0
    5.3567   -1.9043    0.3173 N   0  0  0  0  0  0  0  0  0  0  0  0
    6.3785   -1.1417   -0.3596 C   0  0  0  0  0  0  0  0  0  0  0  0
    7.7261   -1.4641   -0.2198 N   0  0  0  0  0  0  0  0  0  0  0  0
    5.9701   -0.1542   -1.0513 N   0  0  0  0  0  4  0  0  0  0  0  0
   -3.5402   -2.0921    1.4351 C   0  0  0  0  0  0  0  0  0  0  0  0
   -4.3253   -0.6496    1.2057 C   0  0  2  0  0  0  0  0  0  0  0  0
   -5.7951   -1.3937    0.9726 C   0  0  0  0  0  0  0  0  0  0  0  0
   -6.6578   -0.2654    0.7466 N   0  0  0  0  0  0  0  0  0  0  0  0
   -7.3306    0.4232    1.6380 N   0  0  0  0  0  0  0  0  0  0  0  0
   -8.0148    1.3964    1.0212 C   0  0  0  0  0  0  0  0  0  0  0  0
   -7.7500    1.2962   -0.2819 N   0  0  0  0  0  0  0  0  0  0  0  0
   -6.9133    0.2679   -0.4307 N   0  0  0  0  0  0  0  0  0  0  0  0
   -4.0077   -0.6115   -0.3374 N   0  0  0  0  0  0  0  0  0  0  0  0
   -2.5777   -0.5857   -0.5219 C   0  0  0  0  0  0  0  0  0  0  0  0
   -2.0822   -0.5508   -1.7907 N   0  0  0  0  0  0  0  0  0  0  0  0
   -0.7629   -0.5266   -1.9772 C   0  0  0  0  0  0  0  0  0  0  0  0
    0.1673   -0.5349   -0.9376 C   0  0  0  0  0  0  0  0  0  0  0  0
    1.4957   -0.5100   -1.1323 C   0  0  0  0  0  0  0  0  0  0  0  0
    2.4137   -0.5200   -0.0092 C   0  0  0  0  0  0  0  0  0  0  0  0
    3.6996   -0.4949   -0.3392 O   0  0  0  0  0  0  0  0  0  0  0  0
    4.7970    0.2357   -0.2480 C   0  0  0  0  0  0  0  0  0  0  0  0
    5.2992    0.7603   -1.5049 C   0  0  0  0  0  0  0  0  0  0  0  0
    6.4165    1.5163   -1.5180 C   0  0  0  0  0  0  0  0  0  0  0  0
    7.1175    1.8174   -0.3534 C   0  0  0  0  0  0  0  0  0  0  0  0
    8.2230    2.5708   -0.3964 F   0  0  0  0  0  0  0  0  0  0  0  0
    6.6633    1.3332    0.8421 C   0  0  0  0  0  0  0  0  0  0  0  0
    5.4949    0.5389    0.8748 C   0  0  0  0  0  0  0  0  0  0  0  0
    5.1435    0.0687    2.0859 F   0  0  0  0  0  0  0  0  0  0  0  0
    1.8577   -0.5565    1.2320 C   0  0  0  0  0  0  0  0  0  0  0  0
    2.5498   -0.5723    2.2769 O   0  0  0  0  0  0  0  0  0  0  0  0
    0.4953   -0.5798    1.3565 N   0  0  0  0  0  0  0  0  0  0  0  0
   -0.0273   -0.6172    2.7056 C   0  0  0  0  0  0  0  0  0  0  0  0
   -0.3580   -0.5705    0.3416 C   0  0  0  0  0  0  0  0  0  0  0  0
   -1.6911   -0.5937    0.4749 N   0  0  0  0  0  0  0  0  0  0  0  0
  1  2  1  0
  2  3  1  0
  3  4  1  6
  3  5  1  0
  5  6  1  0
  6  7  2  0
  6  8  1  0
  8  9  1  0
  9 10  1  1
 10 11  1  0
 11 12  1  0
 11 13  1  0
  9 14  1  0
 14 15  2  0
 14 16  1  0
 16 17  1  0
 17 18  1  0
 18 19  1  0
 19 20  1  0
 20 21  1  0
 21 22  1  0
 22 23  1  0
 22 24  2  0
 26 25  1  1
 26 27  1  0
 27 28  1  0
 28 29  1  0
 29 30  2  0
 30 31  1  0
 31 32  2  0
 26 33  1  0
 33 34  1  0
 34 35  2  0
 35 36  1  0
 36 37  2  0
 37 38  1  0
 38 39  2  0
 39 40  1  0
 40 41  1  0
 41 42  2  0
 42 43  1  0
 43 44  2  0
 44 45  1  0
 44 46  1  0
 46 47  2  0
 47 48  1  0
 39 49  1  0
 49 50  2  0
 49 51  1  0
 51 52  1  0
 51 53  1  0
 53 54  2  0
 32 28  1  0
 54 34  1  0
 53 37  1  0
 47 41  1  0
M  CHG  1  24   1
M  END

