
     RDKit          3D

 20 19  0  0  0  0  0  0  0  0999 V2000
   -5.0576   -2.5489   -0.1791 C   0  0  0  0  0  0  0  0  0  0  0  0
   -3.9196   -1.6174    0.1584 C   0  0  0  0  0  0  0  0  0  0  0  0
   -3.6270   -1.3583    1.3479 O   0  0  0  0  0  0  0  0  0  0  0  0
   -3.2227   -1.0697   -0.8799 N   0  0  0  0  0  0  0  0  0  0  0  0
   -2.0109   -0.0863   -0.6587 C   0  0  1  0  0  0  0  0  0  0  0  0
   -2.4818    0.3788    0.8428 C   0  0  0  0  0  0  0  0  0  0  0  0
   -1.4295    1.3506    1.2375 C   0  0  0  0  0  0  0  0  0  0  0  0
   -0.0581    0.7600    1.2920 C   0  0  0  0  0  0  0  0  0  0  0  0
   -1.5013    2.6646    0.5182 C   0  0  0  0  0  0  0  0  0  0  0  0
   -0.9549   -1.1661   -0.1943 C   0  0  0  0  0  0  0  0  0  0  0  0
   -1.2444   -2.0748    0.5649 O   0  0  0  0  0  0  0  0  0  0  0  0
    0.3407   -1.0297   -0.7068 N   0  0  0  0  0  0  0  0  0  0  0  0
    1.4353   -1.9228   -0.3904 C   0  0  0  0  0  0  0  0  0  0  0  0
    2.7200   -1.6661   -1.0450 C   0  0  0  0  0  0  0  0  0  0  0  0
    3.2942   -0.3204   -0.7625 C   0  0  0  0  0  0  0  0  0  0  0  0
    3.5459   -0.0549    0.7020 C   0  0  0  0  0  0  0  0  0  0  0  0
    4.1409    1.2446    0.8788 N   0  0  0  0  0  0  0  0  0  0  0  0
    3.5257    2.4356    0.4398 C   0  0  0  0  0  0  0  0  0  0  0  0
    4.1205    3.7147    0.6180 N   0  0  0  0  0  0  0  0  0  0  0  0
    2.3844    2.3665   -0.1458 N   0  0  0  0  0  4  0  0  0  0  0  0
  1  2  1  0
  2  3  2  0
  2  4  1  0
  4  5  1  0
  5  6  1  1
  6  7  1  0
  7  8  1  0
  7  9  1  0
  5 10  1  0
 10 11  2  0
 10 12  1  0
 12 13  1  0
 13 14  1  0
 14 15  1  0
 15 16  1  0
 16 17  1  0
 17 18  1  0
 18 19  1  0
 18 20  2  0
M  CHG  1  20   1
M  END

