
     RDKit          3D

 22 21  0  0  0  0  0  0  0  0999 V2000
   -0.2058    1.1101   -1.5719 C   0  0  0  0  0  0  0  0  0  0  0  0
    0.5718    0.0995   -2.2684 C   0  0  0  0  0  0  0  0  0  0  0  0
    0.4395   -1.3438   -1.5980 C   0  0  2  0  0  0  0  0  0  0  0  0
   -1.1102   -1.5630   -1.6978 C   0  0  0  0  0  0  0  0  0  0  0  0
    0.6331   -1.0388    0.0051 C   0  0  2  0  0  0  0  0  0  0  0  0
   -0.4041   -0.0412    0.3299 N   0  0  0  0  0  0  0  0  0  0  0  0
   -1.7208   -0.2402    0.6169 C   0  0  0  0  0  0  0  0  0  0  0  0
   -2.2316   -1.4317    0.6868 O   0  0  0  0  0  0  0  0  0  0  0  0
   -2.6808    0.8947    0.8421 C   0  0  0  0  0  0  0  0  0  0  0  0
   -3.9675    0.7537    0.1614 C   0  0  0  0  0  0  0  0  0  0  0  0
   -4.8920   -0.3057    0.4064 C   0  0  0  0  0  0  0  0  0  0  0  0
   -5.5242   -0.4116    1.7290 C   0  0  0  0  0  0  0  0  0  0  0  0
   -6.8143    0.1706    1.8694 O   0  0  0  0  0  1  0  0  0  0  0  0
   -5.0616   -0.9581    2.7453 O   0  0  0  0  0  0  0  0  0  0  0  0
    1.9548   -0.2106   -0.0190 C   0  0  0  0  0  0  0  0  0  0  0  0
    2.7224   -0.5256    0.9678 O   0  0  0  0  0  0  0  0  0  0  0  0
    2.3412    0.7200   -0.8822 N   0  0  0  0  0  0  0  0  0  0  0  0
    3.4215    1.5276   -1.1442 C   0  0  0  0  0  0  0  0  0  0  0  0
    4.6129    0.9908   -1.6738 C   0  0  0  0  0  0  0  0  0  0  0  0
    5.5271    0.0396   -1.2924 C   0  0  0  0  0  0  0  0  0  0  0  0
    6.5878    0.0506    0.0923 S   0  0  0  0  0  0  0  0  0  0  0  0
    5.8008   -0.0992    1.6954 C   0  0  0  0  0  0  0  0  0  0  0  0
  1  2  1  0
  2  3  1  0
  3  4  1  1
  3  5  1  0
  5  6  1  6
  6  7  1  0
  7  8  2  0
  7  9  1  0
  9 10  1  0
 10 11  1  0
 11 12  1  0
 12 13  1  0
 12 14  2  0
  5 15  1  0
 15 16  2  0
 15 17  1  0
 17 18  1  0
 18 19  1  0
 19 20  1  0
 20 21  1  0
 21 22  1  0
M  RAD  1  13   2
M  END

