
     RDKit          3D

 58 62  0  0  0  0  0  0  0  0999 V2000
   -4.6036    5.5482   -0.4548 C   0  0  0  0  0  0  0  0  0  0  0  0
   -4.4516    4.1273   -0.0417 C   0  0  0  0  0  0  0  0  0  0  0  0
   -2.9815    3.9884    0.6546 C   0  0  2  0  0  0  0  0  0  0  0  0
   -2.2115    4.4773   -0.7304 C   0  0  0  0  0  0  0  0  0  0  0  0
   -2.8228    2.4247    0.2826 C   0  0  0  0  0  0  0  0  0  0  0  0
   -1.5511    1.9144    0.7799 C   0  0  0  0  0  0  0  0  0  0  0  0
   -0.9175    2.7445    1.4705 O   0  0  0  0  0  0  0  0  0  0  0  0
   -0.9533    0.6635    0.5996 N   0  0  0  0  0  0  0  0  0  0  0  0
    0.4298    0.5094    1.3086 C   0  0  1  0  0  0  0  0  0  0  0  0
    0.0814   -0.8633    2.1156 C   0  0  0  0  0  0  0  0  0  0  0  0
   -0.2611   -1.9413    1.2555 C   0  0  0  0  0  0  0  0  0  0  0  0
    0.5546   -2.9831    0.8705 C   0  0  0  0  0  0  0  0  0  0  0  0
   -0.0932   -3.8115    0.0494 N   0  0  0  0  0  0  0  0  0  0  0  0
   -1.3439   -3.3576   -0.1401 C   0  0  0  0  0  0  0  0  0  0  0  0
   -2.3907   -3.8805   -0.9035 C   0  0  0  0  0  0  0  0  0  0  0  0
   -3.5696   -3.1880   -0.8912 C   0  0  0  0  0  0  0  0  0  0  0  0
   -3.6920   -2.0503   -0.1657 C   0  0  0  0  0  0  0  0  0  0  0  0
   -2.6800   -1.5165    0.5911 C   0  0  0  0  0  0  0  0  0  0  0  0
   -1.4617   -2.2043    0.5985 C   0  0  0  0  0  0  0  0  0  0  0  0
    1.2209   -0.1782    0.0992 C   0  0  0  0  0  0  0  0  0  0  0  0
    0.7619   -0.3917   -0.9832 O   0  0  0  0  0  0  0  0  0  0  0  0
    2.5745   -0.5312    0.4308 N   0  0  0  0  0  0  0  0  0  0  0  0
    3.3451   -1.1492   -0.6183 C   0  0  0  0  0  0  0  0  0  0  0  0
    4.7162   -1.4513   -0.0163 C   0  0  0  0  0  0  0  0  0  0  0  0
    5.3815   -0.2048    0.4787 C   0  0  0  0  0  0  0  0  0  0  0  0
    5.6027    0.7950   -0.5923 C   0  0  0  0  0  0  0  0  0  0  0  0
    4.6660    1.8034   -0.7716 O   0  0  0  0  0  1  0  0  0  0  0  0
    6.6504    0.7067   -1.3271 O   0  0  0  0  0  0  0  0  0  0  0  0
    3.7720   -1.4551   -1.2532 C   0  0  0  0  0  0  0  0  0  0  0  0
    4.3100   -0.0015   -0.6242 C   0  0  2  0  0  0  0  0  0  0  0  0
    5.8160   -0.6404   -0.2883 C   0  0  0  0  0  0  0  0  0  0  0  0
    6.5224    0.4829    0.2998 N   0  0  0  0  0  0  0  0  0  0  0  0
    6.6141    0.8641    1.5639 N   0  0  0  0  0  0  0  0  0  0  0  0
    7.3823    1.9750    1.6456 C   0  0  0  0  0  0  0  0  0  0  0  0
    7.7482    2.2484    0.3941 N   0  0  0  0  0  0  0  0  0  0  0  0
    7.2254    1.3419   -0.4209 N   0  0  0  0  0  0  0  0  0  0  0  0
    3.7721   -0.3435    0.8216 N   0  0  0  0  0  0  0  0  0  0  0  0
    2.3948   -0.5664    0.9111 C   0  0  0  0  0  0  0  0  0  0  0  0
    1.8723   -0.8608    2.1066 N   0  0  0  0  0  0  0  0  0  0  0  0
    0.5459   -1.0878    2.2609 C   0  0  0  0  0  0  0  0  0  0  0  0
   -0.3222   -1.0233    1.1828 C   0  0  0  0  0  0  0  0  0  0  0  0
   -1.6791   -1.2448    1.2816 C   0  0  0  0  0  0  0  0  0  0  0  0
   -2.5051   -1.1661    0.1599 C   0  0  0  0  0  0  0  0  0  0  0  0
   -3.8628   -1.3814    0.2238 O   0  0  0  0  0  0  0  0  0  0  0  0
   -4.8183   -0.4487   -0.1262 C   0  0  0  0  0  0  0  0  0  0  0  0
   -5.7533   -0.6404   -1.1196 C   0  0  0  0  0  0  0  0  0  0  0  0
   -6.6833    0.3326   -1.4218 C   0  0  0  0  0  0  0  0  0  0  0  0
   -6.7334    1.5414   -0.7568 C   0  0  0  0  0  0  0  0  0  0  0  0
   -7.6546    2.4885   -1.0660 F   0  0  0  0  0  0  0  0  0  0  0  0
   -5.7913    1.7228    0.2371 C   0  0  0  0  0  0  0  0  0  0  0  0
   -4.8457    0.7507    0.5546 C   0  0  0  0  0  0  0  0  0  0  0  0
   -3.9246    0.9554    1.5424 F   0  0  0  0  0  0  0  0  0  0  0  0
   -1.9145   -0.8590   -1.0489 C   0  0  0  0  0  0  0  0  0  0  0  0
   -2.6655   -0.7893   -2.0589 O   0  0  0  0  0  0  0  0  0  0  0  0
   -0.5877   -0.6453   -1.1294 N   0  0  0  0  0  0  0  0  0  0  0  0
   -0.0124   -0.3244   -2.4278 C   0  0  0  0  0  0  0  0  0  0  0  0
    0.2292   -0.7191   -0.0427 C   0  0  0  0  0  0  0  0  0  0  0  0
    1.5489   -0.5061   -0.1252 N   0  0  0  0  0  0  0  0  0  0  0  0
  1  2  1  0
  2  3  1  0
  3  4  1  6
  3  5  1  0
  5  6  1  0
  6  7  2  0
  6  8  1  0
  8  9  1  0
  9 10  1  1
 10 11  1  0
 11 12  2  0
 12 13  1  0
 13 14  1  0
 14 15  2  0
 15 16  1  0
 16 17  2  0
 17 18  1  0
 18 19  2  0
  9 20  1  0
 20 21  2  0
 20 22  1  0
 22 23  1  0
 23 24  1  0
 24 25  1  0
 25 26  1  0
 26 27  1  0
 26 28  2  0
 30 29  1  6
 30 31  1  0
 31 32  1  0
 32 33  1  0
 33 34  2  0
 34 35  1  0
 35 36  2  0
 30 37  1  0
 37 38  1  0
 38 39  2  0
 39 40  1  0
 40 41  2  0
 41 42  1  0
 42 43  2  0
 43 44  1  0
 44 45  1  0
 45 46  2  0
 46 47  1  0
 47 48  2  0
 48 49  1  0
 48 50  1  0
 50 51  2  0
 51 52  1  0
 43 53  1  0
 53 54  2  0
 53 55  1  0
 55 56  1  0
 55 57  1  0
 57 58  2  0
 19 11  1  0
 36 32  1  0
 58 38  1  0
 19 14  1  0
 57 41  1  0
 51 45  1  0
M  RAD  1  27   2
M  END

