
     RDKit          3D

 49 51  0  0  0  0  0  0  0  0999 V2000
   -2.5550   -3.3604   -0.9923 C   0  0  0  0  0  0  0  0  0  0  0  0
   -2.8568   -2.4654    0.1417 C   0  0  0  0  0  0  0  0  0  0  0  0
   -4.0982   -1.6770    0.0359 C   0  0  0  0  0  0  0  0  0  0  0  0
   -1.7359   -1.9020    0.9128 C   0  0  0  0  0  0  0  0  0  0  0  0
   -0.8262   -1.0279   -0.1569 C   0  0  2  0  0  0  0  0  0  0  0  0
    0.2123   -0.5745    0.9412 N   0  0  0  0  0  0  0  0  0  0  0  0
    1.5225   -0.3858    0.4518 C   0  0  0  0  0  0  0  0  0  0  0  0
    1.7268   -0.5876   -0.7681 O   0  0  0  0  0  0  0  0  0  0  0  0
    2.7118    0.0351    1.2556 C   0  0  0  0  0  0  0  0  0  0  0  0
    3.9455    0.0061    0.4260 C   0  0  0  0  0  0  0  0  0  0  0  0
    5.1341    0.4190    1.1831 C   0  0  0  0  0  0  0  0  0  0  0  0
    6.4415    0.3819    0.5796 N   0  0  0  0  0  0  0  0  0  0  0  0
    5.1104    0.8231    2.3677 O   0  0  0  0  0  0  0  0  0  0  0  0
   -1.7268    0.2528   -0.1099 C   0  0  0  0  0  0  0  0  0  0  0  0
   -1.7412    0.8898    0.9161 O   0  0  0  0  0  0  0  0  0  0  0  0
   -2.4276    0.5214   -1.2846 N   0  0  0  0  0  0  0  0  0  0  0  0
   -3.2977    1.6765   -1.3482 C   0  0  0  0  0  0  0  0  0  0  0  0
   -2.4250    2.8884   -1.0849 C   0  0  0  0  0  0  0  0  0  0  0  0
   -3.1142    4.0868   -1.1176 O   0  0  0  0  0  0  0  0  0  0  0  0
    3.3025   -2.3801   -0.9533 C   0  0  0  0  0  0  0  0  0  0  0  0
    4.1422   -1.5291    0.2026 C   0  0  1  0  0  0  0  0  0  0  0  0
    5.4433   -1.3220   -0.8228 C   0  0  0  0  0  0  0  0  0  0  0  0
    6.3920   -0.5652   -0.0355 N   0  0  0  0  0  0  0  0  0  0  0  0
    6.4753    0.7596    0.0294 N   0  0  0  0  0  0  0  0  0  0  0  0
    7.4865    1.0411    0.8702 C   0  0  0  0  0  0  0  0  0  0  0  0
    7.9918   -0.1089    1.2946 N   0  0  0  0  0  0  0  0  0  0  0  0
    7.3321   -1.0888    0.7487 N   0  0  0  0  0  0  0  0  0  0  0  0
    3.5227   -0.1372   -0.1865 N   0  0  0  0  0  0  0  0  0  0  0  0
    2.1316    0.0100   -0.0951 C   0  0  0  0  0  0  0  0  0  0  0  0
    1.4224   -1.0553    0.3210 N   0  0  0  0  0  0  0  0  0  0  0  0
    0.0926   -1.0824    0.4628 C   0  0  0  0  0  0  0  0  0  0  0  0
   -0.6065    0.0669    0.1603 C   0  0  0  0  0  0  0  0  0  0  0  0
   -1.9769    0.0950    0.2882 C   0  0  0  0  0  0  0  0  0  0  0  0
   -2.6196    1.2665   -0.0271 C   0  0  0  0  0  0  0  0  0  0  0  0
   -3.9910    1.3346    0.0880 O   0  0  0  0  0  0  0  0  0  0  0  0
   -4.7024    0.2280    0.5177 C   0  0  0  0  0  0  0  0  0  0  0  0
   -5.4512    0.3574    1.6678 C   0  0  0  0  0  0  0  0  0  0  0  0
   -6.1757   -0.7115    2.1367 C   0  0  0  0  0  0  0  0  0  0  0  0
   -6.1498   -1.9134    1.4512 C   0  0  0  0  0  0  0  0  0  0  0  0
   -6.8539   -2.9548    1.9056 F   0  0  0  0  0  0  0  0  0  0  0  0
   -5.3992   -2.0303    0.3052 C   0  0  0  0  0  0  0  0  0  0  0  0
   -4.6629   -0.9464   -0.1726 C   0  0  0  0  0  0  0  0  0  0  0  0
   -3.9327   -1.1029   -1.3104 F   0  0  0  0  0  0  0  0  0  0  0  0
   -1.8767    2.3587   -0.4553 C   0  0  0  0  0  0  0  0  0  0  0  0
   -2.5431    3.4141   -0.7306 O   0  0  0  0  0  0  0  0  0  0  0  0
   -0.5620    2.2729   -0.5589 N   0  0  0  0  0  0  0  0  0  0  0  0
    0.1728    3.4387   -1.0101 C   0  0  0  0  0  0  0  0  0  0  0  0
    0.1284    1.1563   -0.2662 C   0  0  0  0  0  0  0  0  0  0  0  0
    1.4675    1.1287   -0.3911 N   0  0  0  0  0  0  0  0  0  0  0  0
  1  2  1  0
  2  3  1  0
  2  4  1  0
  5  4  1  1
  5  6  1  0
  6  7  1  0
  7  8  2  0
  7  9  1  0
  9 10  1  0
 10 11  1  0
 11 12  1  0
 11 13  2  0
  5 14  1  0
 14 15  2  0
 14 16  1  0
 16 17  1  0
 17 18  1  0
 18 19  1  0
 21 20  1  1
 21 22  1  0
 22 23  1  0
 23 24  1  0
 24 25  2  0
 25 26  1  0
 26 27  2  0
 21 28  1  0
 28 29  1  0
 29 30  2  0
 30 31  1  0
 31 32  2  0
 32 33  1  0
 33 34  2  0
 34 35  1  0
 35 36  1  0
 36 37  2  0
 37 38  1  0
 38 39  2  0
 39 40  1  0
 39 41  1  0
 41 42  2  0
 42 43  1  0
 34 44  1  0
 44 45  2  0
 44 46  1  0
 46 47  1  0
 46 48  1  0
 48 49  2  0
 27 23  1  0
 49 29  1  0
 48 32  1  0
 42 36  1  0
M  END

