
     RDKit          3D

 22 21  0  0  0  0  0  0  0  0999 V2000
    5.4912   -0.0827    0.8440 O   0  0  0  0  0  1  0  0  0  0  0  0
    5.4720    0.7051   -0.2873 C   0  0  0  0  0  0  0  0  0  0  0  0
    6.5051    1.3200   -0.6081 O   0  0  0  0  0  0  0  0  0  0  0  0
    4.2648    0.8431   -1.1309 C   0  0  0  0  0  0  0  0  0  0  0  0
    3.0951    0.0440   -0.6137 C   0  0  0  0  0  0  0  0  0  0  0  0
    2.7320    0.5221    0.7930 C   0  0  0  0  0  0  0  0  0  0  0  0
    1.6047   -0.2716    1.2598 N   0  0  0  0  0  0  0  0  0  0  0  0
    0.3573   -0.3254    0.6214 C   0  0  0  0  0  0  0  0  0  0  0  0
    0.1332    0.3053   -0.3894 O   0  0  0  0  0  0  0  0  0  0  0  0
   -0.7153   -1.2551    1.3074 C   0  0  2  0  0  0  0  0  0  0  0  0
   -0.1347   -2.6771    0.7337 C   0  0  0  0  0  0  0  0  0  0  0  0
   -0.1592   -2.7171   -0.6954 C   0  0  0  0  0  0  0  0  0  0  0  0
    0.3746   -3.8895   -1.2745 O   0  0  0  0  0  1  0  0  0  0  0  0
   -0.5765   -1.8838   -1.5285 O   0  0  0  0  0  0  0  0  0  0  0  0
   -1.8690   -1.0580    0.2437 N   0  0  0  0  0  0  0  0  0  0  0  0
   -2.4530    0.2355    0.2233 C   0  0  0  0  0  0  0  0  0  0  0  0
   -2.0954    1.1592    0.9789 O   0  0  0  0  0  0  0  0  0  0  0  0
   -3.5448    0.4635   -0.7641 C   0  0  0  0  0  0  0  0  0  0  0  0
   -4.0688    1.8514   -0.6594 C   0  0  0  0  0  0  0  0  0  0  0  0
   -4.6193    2.1074    0.6797 C   0  0  0  0  0  0  0  0  0  0  0  0
   -5.1508    3.3638    0.9990 O   0  0  0  0  0  1  0  0  0  0  0  0
   -4.6430    1.2400    1.5865 O   0  0  0  0  0  0  0  0  0  0  0  0
  1  2  1  0
  2  3  2  0
  2  4  1  0
  4  5  1  0
  5  6  1  0
  6  7  1  0
  7  8  1  0
  8  9  2  0
  8 10  1  0
 10 11  1  6
 11 12  1  0
 12 13  1  0
 12 14  2  0
 10 15  1  0
 15 16  1  0
 16 17  2  0
 16 18  1  0
 18 19  1  0
 19 20  1  0
 20 21  1  0
 20 22  2  0
M  RAD  3   1   2  13   2  21   2
M  END

