
     RDKit          3D

 21 20  0  0  0  0  0  0  0  0999 V2000
   -3.4774    2.7399   -1.6900 C   0  0  0  0  0  0  0  0  0  0  0  0
   -3.5148    1.9727   -0.2085 C   0  0  1  0  0  0  0  0  0  0  0  0
   -4.9289    2.5095    0.1115 O   0  0  0  0  0  0  0  0  0  0  0  0
   -4.1567    0.5534   -0.8724 C   0  0  0  0  0  0  0  0  0  0  0  0
   -2.9083   -0.0933   -1.2562 N   0  0  0  0  0  0  0  0  0  0  0  0
   -1.9566   -0.3513   -0.2589 C   0  0  0  0  0  0  0  0  0  0  0  0
   -2.0767   -0.0779    0.9363 O   0  0  0  0  0  0  0  0  0  0  0  0
   -0.5936   -1.0544   -0.6716 C   0  0  2  0  0  0  0  0  0  0  0  0
   -0.9823   -2.4972    0.1211 C   0  0  0  0  0  0  0  0  0  0  0  0
    0.2680   -3.3243   -0.1831 C   0  0  0  0  0  0  0  0  0  0  0  0
    0.4039   -3.4620   -1.6435 C   0  0  0  0  0  0  0  0  0  0  0  0
    1.5470   -4.1642   -2.1407 N   0  0  0  0  0  0  0  0  0  0  0  0
   -0.4072   -3.0024   -2.4663 O   0  0  0  0  0  0  0  0  0  0  0  0
    0.2421   -0.5284    0.5737 N   0  0  0  0  0  0  0  0  0  0  0  0
    1.3453    0.2602    0.0823 C   0  0  0  0  0  0  0  0  0  0  0  0
    1.5440    0.4460   -1.1560 O   0  0  0  0  0  0  0  0  0  0  0  0
    2.3136    0.9020    1.0081 C   0  0  0  0  0  0  0  0  0  0  0  0
    3.3667    1.6377    0.2292 C   0  0  0  0  0  0  0  0  0  0  0  0
    4.3575    2.3097    1.1420 C   0  0  0  0  0  0  0  0  0  0  0  0
    5.4776    3.0010    0.5868 N   0  0  0  0  0  0  0  0  0  0  0  0
    4.1370    2.2233    2.3694 O   0  0  0  0  0  0  0  0  0  0  0  0
  2  1  1  6
  2  3  1  0
  2  4  1  0
  4  5  1  0
  5  6  1  0
  6  7  2  0
  6  8  1  0
  8  9  1  1
  9 10  1  0
 10 11  1  0
 11 12  1  0
 11 13  2  0
  8 14  1  0
 14 15  1  0
 15 16  2  0
 15 17  1  0
 17 18  1  0
 18 19  1  0
 19 20  1  0
 19 21  2  0
M  END

