
     RDKit          3D

 53 55  0  0  0  0  0  0  0  0999 V2000
   -6.1207   -0.0786   -1.0691 C   0  0  0  0  0  0  0  0  0  0  0  0
   -4.9999    0.4619   -1.8763 C   0  0  0  0  0  0  0  0  0  0  0  0
   -4.8751    0.0156   -3.2680 C   0  0  0  0  0  0  0  0  0  0  0  0
   -3.7158    0.6963   -1.1556 C   0  0  0  0  0  0  0  0  0  0  0  0
   -3.1435   -0.5428   -0.5034 C   0  0  0  0  0  0  0  0  0  0  0  0
   -1.8644   -0.1079    0.1304 C   0  0  0  0  0  0  0  0  0  0  0  0
   -0.9783   -0.9762    0.3407 O   0  0  0  0  0  0  0  0  0  0  0  0
   -1.6574    1.2109    0.4755 N   0  0  0  0  0  0  0  0  0  0  0  0
   -0.3117    1.6818    1.1197 C   0  0  1  0  0  0  0  0  0  0  0  0
   -0.6032    0.5976    2.4681 C   0  0  0  0  0  0  0  0  0  0  0  0
    0.6061    0.7424    3.2504 C   0  0  0  0  0  0  0  0  0  0  0  0
    0.7466   -0.0575    4.4785 C   0  0  0  0  0  0  0  0  0  0  0  0
    2.0808   -0.2096    4.8830 O   0  0  0  0  0  1  0  0  0  0  0  0
   -0.1420   -0.5891    5.1561 O   0  0  0  0  0  0  0  0  0  0  0  0
    0.7239    0.7453    0.4511 C   0  0  0  0  0  0  0  0  0  0  0  0
    1.3445   -0.0090    1.2170 O   0  0  0  0  0  0  0  0  0  0  0  0
    0.9693    0.7157   -0.9182 N   0  0  0  0  0  0  0  0  0  0  0  0
    2.0140   -0.1808   -1.3839 C   0  0  0  0  0  0  0  0  0  0  0  0
    2.0756   -0.3090   -2.8893 C   0  0  0  0  0  0  0  0  0  0  0  0
    3.3639   -1.1439   -3.1587 C   0  0  0  0  0  0  0  0  0  0  0  0
    4.5094   -0.2414   -2.7162 C   0  0  0  0  0  0  0  0  0  0  0  0
    5.0856   -0.3686   -1.4869 O   0  0  0  0  0  1  0  0  0  0  0  0
    4.8922    0.6453   -3.5448 O   0  0  0  0  0  0  0  0  0  0  0  0
   -3.4901   -1.6778    0.9287 C   0  0  0  0  0  0  0  0  0  0  0  0
   -4.3317   -0.5477    1.7881 C   0  0  2  0  0  0  0  0  0  0  0  0
   -5.8033   -1.0458    1.2614 C   0  0  0  0  0  0  0  0  0  0  0  0
   -5.8470   -0.9342   -0.1469 N   0  0  0  0  0  0  0  0  0  0  0  0
   -5.4903   -1.8988   -0.9927 N   0  0  0  0  0  0  0  0  0  0  0  0
   -5.6668   -1.4283   -2.2238 C   0  0  0  0  0  0  0  0  0  0  0  0
   -6.1320   -0.1743   -2.1002 N   0  0  0  0  0  0  0  0  0  0  0  0
   -6.2446    0.1343   -0.8170 N   0  0  0  0  0  0  0  0  0  0  0  0
   -4.1517    0.5705    0.6929 N   0  0  0  0  0  0  0  0  0  0  0  0
   -2.7739    0.8806    0.4366 C   0  0  0  0  0  0  0  0  0  0  0  0
   -2.4910    1.8209   -0.4797 N   0  0  0  0  0  0  0  0  0  0  0  0
   -1.2202    2.1687   -0.7770 C   0  0  0  0  0  0  0  0  0  0  0  0
   -0.1814    1.5381   -0.1188 C   0  0  0  0  0  0  0  0  0  0  0  0
    1.1473    1.8177   -0.3468 C   0  0  0  0  0  0  0  0  0  0  0  0
    2.1625    1.1717    0.3257 C   0  0  0  0  0  0  0  0  0  0  0  0
    3.4882    1.4832    0.0662 O   0  0  0  0  0  0  0  0  0  0  0  0
    4.2992    0.4548   -0.3998 C   0  0  0  0  0  0  0  0  0  0  0  0
    3.8507   -0.8296   -0.6107 C   0  0  0  0  0  0  0  0  0  0  0  0
    4.6981   -1.7927   -1.0695 C   0  0  0  0  0  0  0  0  0  0  0  0
    6.0111   -1.4620   -1.3193 C   0  0  0  0  0  0  0  0  0  0  0  0
    6.8532   -2.4218   -1.7759 F   0  0  0  0  0  0  0  0  0  0  0  0
    6.4782   -0.1805   -1.1139 C   0  0  0  0  0  0  0  0  0  0  0  0
    5.6158    0.7826   -0.6513 C   0  0  0  0  0  0  0  0  0  0  0  0
    6.0900    2.0332   -0.4555 F   0  0  0  0  0  0  0  0  0  0  0  0
    1.8279    0.2121    1.2592 C   0  0  0  0  0  0  0  0  0  0  0  0
    2.7361   -0.3766    1.8717 O   0  0  0  0  0  0  0  0  0  0  0  0
    0.5324   -0.0710    1.4919 N   0  0  0  0  0  0  0  0  0  0  0  0
    0.2363   -1.0885    2.4837 C   0  0  0  0  0  0  0  0  0  0  0  0
   -0.4525    0.5691    0.8262 C   0  0  0  0  0  0  0  0  0  0  0  0
   -1.7505    0.2921    1.0528 N   0  0  0  0  0  0  0  0  0  0  0  0
  1  2  1  0
  2  3  1  0
  2  4  1  0
  4  5  1  0
  5  6  1  0
  6  7  2  0
  6  8  1  0
  8  9  1  0
  9 10  1  1
 10 11  1  0
 11 12  1  0
 12 13  1  0
 12 14  2  0
  9 15  1  0
 15 16  2  0
 15 17  1  0
 17 18  1  0
 18 19  1  0
 19 20  1  0
 20 21  1  0
 21 22  1  0
 21 23  2  0
 25 24  1  6
 25 26  1  0
 26 27  1  0
 27 28  1  0
 28 29  2  0
 29 30  1  0
 30 31  2  0
 25 32  1  0
 32 33  1  0
 33 34  2  0
 34 35  1  0
 35 36  2  0
 36 37  1  0
 37 38  2  0
 38 39  1  0
 39 40  1  0
 40 41  2  0
 41 42  1  0
 42 43  2  0
 43 44  1  0
 43 45  1  0
 45 46  2  0
 46 47  1  0
 38 48  1  0
 48 49  2  0
 48 50  1  0
 50 51  1  0
 50 52  1  0
 52 53  2  0
 31 27  1  0
 53 33  1  0
 52 36  1  0
 46 40  1  0
M  RAD  2  13   2  22   2
M  END

