
     RDKit          3D

 21 20  0  0  0  0  0  0  0  0999 V2000
    5.9042    0.3662    1.4956 C   0  0  0  0  0  0  0  0  0  0  0  0
    5.5586    1.5497    0.1919 S   0  0  0  0  0  0  0  0  0  0  0  0
    4.6027    0.7446   -1.1635 C   0  0  0  0  0  0  0  0  0  0  0  0
    3.2446    0.3570   -0.6053 C   0  0  0  0  0  0  0  0  0  0  0  0
    2.5033    1.5731   -0.0897 C   0  0  0  0  0  0  0  0  0  0  0  0
    1.2240    1.0568    0.4073 N   0  0  0  0  0  0  0  0  0  0  0  0
    0.3165    0.3915   -0.4445 C   0  0  0  0  0  0  0  0  0  0  0  0
    0.4971    0.1978   -1.6081 O   0  0  0  0  0  0  0  0  0  0  0  0
   -0.9682   -0.0592    0.3344 C   0  0  2  0  0  0  0  0  0  0  0  0
   -0.5795   -1.6864    0.2075 C   0  0  0  0  0  0  0  0  0  0  0  0
    0.7792   -1.7608    0.9371 C   0  0  0  0  0  0  0  0  0  0  0  0
    1.2189   -3.1765    0.8471 C   0  0  0  0  0  0  0  0  0  0  0  0
    2.4237   -3.5534    1.4591 N   0  0  0  0  0  0  0  0  0  0  0  0
    0.5734   -4.0596    0.2531 O   0  0  0  0  0  0  0  0  0  0  0  0
   -1.8881   -0.1842   -0.9474 N   0  0  0  0  0  0  0  0  0  0  0  0
   -3.0092    0.6806   -0.9218 C   0  0  0  0  0  0  0  0  0  0  0  0
   -3.1779    1.4484    0.0600 O   0  0  0  0  0  0  0  0  0  0  0  0
   -3.9502    0.6910   -1.9978 C   0  0  0  0  0  0  0  0  0  0  0  0
   -5.1819    1.7050   -1.7432 C   0  0  1  0  0  0  0  0  0  0  0  0
   -5.6732    0.9564   -0.3573 C   0  0  0  0  0  0  0  0  0  0  0  0
   -4.4180    2.7619   -1.0119 O   0  0  0  0  0  0  0  0  0  0  0  0
  1  2  1  0
  2  3  1  0
  3  4  1  0
  4  5  1  0
  5  6  1  0
  6  7  1  0
  7  8  2  0
  7  9  1  0
  9 10  1  6
 10 11  1  0
 11 12  1  0
 12 13  1  0
 12 14  2  0
  9 15  1  0
 15 16  1  0
 16 17  2  0
 16 18  1  0
 18 19  1  0
 19 20  1  1
 19 21  1  0
M  END

