
     RDKit          3D

 20 19  0  0  0  0  0  0  0  0999 V2000
   -4.7586   -0.6776    1.5595 C   0  0  0  0  0  0  0  0  0  0  0  0
   -4.1074   -0.3698    0.2234 C   0  0  0  0  0  0  0  0  0  0  0  0
   -3.9595   -1.8040   -0.4383 C   0  0  2  0  0  0  0  0  0  0  0  0
   -3.0094   -2.4411    0.7649 C   0  0  0  0  0  0  0  0  0  0  0  0
   -2.7175   -1.4885   -1.4417 C   0  0  0  0  0  0  0  0  0  0  0  0
   -1.6262   -1.0193   -0.7482 N   0  0  0  0  0  0  0  0  0  0  0  0
   -1.4560    0.2718   -0.2531 C   0  0  0  0  0  0  0  0  0  0  0  0
   -2.3217    1.2236   -0.4744 O   0  0  0  0  0  0  0  0  0  0  0  0
   -0.1886    0.7552    0.5769 C   0  0  2  0  0  0  0  0  0  0  0  0
   -0.1795    2.2544   -0.1375 C   0  0  0  0  0  0  0  0  0  0  0  0
    0.8467    3.0667    0.3576 C   0  0  0  0  0  0  0  0  0  0  0  0
    1.9355    3.5820   -0.3852 O   0  0  0  0  0  1  0  0  0  0  0  0
    0.8795    3.4032    1.6280 O   0  0  0  0  0  0  0  0  0  0  0  0
    0.7945    0.2365   -0.6488 N   0  0  0  0  0  0  0  0  0  0  0  0
    1.6973   -0.7016   -0.1395 C   0  0  0  0  0  0  0  0  0  0  0  0
    1.6595   -0.8891    1.2066 O   0  0  0  0  0  0  0  0  0  0  0  0
    2.7128   -1.5683   -0.7550 C   0  0  0  0  0  0  0  0  0  0  0  0
    4.0969   -1.3193   -0.0882 C   0  0  0  0  0  0  0  0  0  0  0  0
    5.0813   -2.4125   -0.2940 C   0  0  0  0  0  0  0  0  0  0  0  0
    4.6202   -0.1024   -0.9625 C   0  0  0  0  0  0  0  0  0  0  0  0
  1  2  1  0
  2  3  1  0
  3  4  1  1
  3  5  1  0
  5  6  1  0
  6  7  1  0
  7  8  2  0
  7  9  1  0
  9 10  1  6
 10 11  1  0
 11 12  1  0
 11 13  2  0
  9 14  1  0
 14 15  1  0
 15 16  2  0
 15 17  1  0
 17 18  1  0
 18 19  1  0
 18 20  1  0
M  RAD  1  12   2
M  END

