
     RDKit          3D

 54 57  0  0  0  0  0  0  0  0999 V2000
   -4.5745    5.1695    1.2696 C   0  0  0  0  0  0  0  0  0  0  0  0
   -4.2718    3.7640    0.1368 S   0  0  0  0  0  0  0  0  0  0  0  0
   -2.6609    3.9304   -0.5509 C   0  0  0  0  0  0  0  0  0  0  0  0
   -1.5520    3.7370    0.2183 C   0  0  0  0  0  0  0  0  0  0  0  0
   -0.9850    2.6398    0.9703 C   0  0  0  0  0  0  0  0  0  0  0  0
   -0.6332    1.4736    0.3188 N   0  0  0  0  0  0  0  0  0  0  0  0
   -1.2178    0.4161   -0.3031 C   0  0  0  0  0  0  0  0  0  0  0  0
   -2.3887    0.1724   -0.3832 O   0  0  0  0  0  0  0  0  0  0  0  0
   -0.2537   -0.6062   -1.0009 C   0  0  2  0  0  0  0  0  0  0  0  0
   -1.1810   -1.7691   -1.5386 C   0  0  0  0  0  0  0  0  0  0  0  0
   -1.9340   -2.5290   -0.5720 C   0  0  0  0  0  0  0  0  0  0  0  0
   -3.2841   -2.8585   -0.8030 C   0  0  0  0  0  0  0  0  0  0  0  0
   -3.7391   -3.5643    0.2651 N   0  0  0  0  0  0  0  0  0  0  0  0
   -2.7331   -3.6846    1.1501 C   0  0  0  0  0  0  0  0  0  0  0  0
   -1.6459   -3.0484    0.6226 N   0  0  0  0  0  0  0  0  0  0  0  0
    0.1918   -1.4277    0.3214 N   0  0  0  0  0  0  0  0  0  0  0  0
    1.5967   -1.0846    0.5027 C   0  0  0  0  0  0  0  0  0  0  0  0
    2.1132   -0.2860   -0.3805 O   0  0  0  0  0  0  0  0  0  0  0  0
    2.5125   -1.5208    1.5365 C   0  0  0  0  0  0  0  0  0  0  0  0
    3.8645   -0.7733    1.4629 C   0  0  0  0  0  0  0  0  0  0  0  0
    4.5023   -1.0105    0.1186 C   0  0  0  0  0  0  0  0  0  0  0  0
    5.8411   -0.2783    0.0121 C   0  0  0  0  0  0  0  0  0  0  0  0
    5.5969    1.1854    0.1961 C   0  0  0  0  0  0  0  0  0  0  0  0
    6.8358    1.9528    0.1377 N   0  0  0  0  0  4  0  0  0  0  0  0
    5.9814   -1.2494   -0.2699 C   0  0  0  0  0  0  0  0  0  0  0  0
    4.4254   -0.7717   -0.6052 C   0  0  2  0  0  0  0  0  0  0  0  0
    4.3580    0.2225    0.7245 C   0  0  0  0  0  0  0  0  0  0  0  0
    5.4385    1.1543    0.4690 N   0  0  0  0  0  0  0  0  0  0  0  0
    5.4489    2.3110   -0.1652 N   0  0  0  0  0  0  0  0  0  0  0  0
    6.6860    2.8406   -0.1620 C   0  0  0  0  0  0  0  0  0  0  0  0
    7.4536    1.9630    0.5039 N   0  0  0  0  0  0  0  0  0  0  0  0
    6.6812    0.9604    0.8718 N   0  0  0  0  0  0  0  0  0  0  0  0
    3.7938   -1.9972    0.1746 N   0  0  0  0  0  0  0  0  0  0  0  0
    2.3847   -1.9504    0.1198 C   0  0  0  0  0  0  0  0  0  0  0  0
    1.7108   -2.9441    0.7493 N   0  0  0  0  0  0  0  0  0  0  0  0
    0.3678   -3.0119    0.7696 C   0  0  0  0  0  0  0  0  0  0  0  0
   -0.3164   -1.9930    0.1001 C   0  0  0  0  0  0  0  0  0  0  0  0
   -1.6915   -2.0142    0.0899 C   0  0  0  0  0  0  0  0  0  0  0  0
   -2.3539   -1.0147   -0.5667 C   0  0  0  0  0  0  0  0  0  0  0  0
   -3.7278   -1.0075   -0.5953 O   0  0  0  0  0  0  0  0  0  0  0  0
   -4.4972    0.0278   -0.0820 C   0  0  0  0  0  0  0  0  0  0  0  0
   -3.8926    1.1252    0.4956 C   0  0  0  0  0  0  0  0  0  0  0  0
   -4.6682    2.1636    1.0104 C   0  0  0  0  0  0  0  0  0  0  0  0
   -6.0464    2.1338    0.9627 C   0  0  0  0  0  0  0  0  0  0  0  0
   -6.8084    3.1517    1.4673 F   0  0  0  0  0  0  0  0  0  0  0  0
   -6.6336    1.0296    0.3821 C   0  0  0  0  0  0  0  0  0  0  0  0
   -5.8716   -0.0162   -0.1368 C   0  0  0  0  0  0  0  0  0  0  0  0
   -6.4392   -1.1068   -0.7100 F   0  0  0  0  0  0  0  0  0  0  0  0
   -1.6555   -0.0171   -1.1983 C   0  0  0  0  0  0  0  0  0  0  0  0
   -2.2528    0.9282   -1.8187 O   0  0  0  0  0  0  0  0  0  0  0  0
   -0.3012   -0.0093   -1.1797 N   0  0  0  0  0  0  0  0  0  0  0  0
    0.4018    1.0793   -1.8699 C   0  0  0  0  0  0  0  0  0  0  0  0
    0.3397   -0.9819   -0.5409 C   0  0  0  0  0  0  0  0  0  0  0  0
    1.6847   -1.0056   -0.5021 N   0  0  0  0  0  0  0  0  0  0  0  0
  1  2  1  0
  2  3  1  0
  3  4  1  0
  4  5  1  0
  5  6  1  0
  6  7  1  0
  7  8  2  0
  7  9  1  0
  9 10  1  6
 10 11  1  0
 11 12  2  0
 12 13  1  0
 13 14  1  0
 14 15  2  0
  9 16  1  0
 16 17  1  0
 17 18  2  0
 17 19  1  0
 19 20  1  0
 20 21  1  0
 21 22  1  0
 22 23  1  0
 23 24  1  0
 26 25  1  1
 26 27  1  0
 27 28  1  0
 28 29  1  0
 29 30  2  0
 30 31  1  0
 31 32  2  0
 26 33  1  0
 33 34  1  0
 34 35  2  0
 35 36  1  0
 36 37  2  0
 37 38  1  0
 38 39  2  0
 39 40  1  0
 40 41  1  0
 41 42  2  0
 42 43  1  0
 43 44  2  0
 44 45  1  0
 44 46  1  0
 46 47  2  0
 47 48  1  0
 39 49  1  0
 49 50  2  0
 49 51  1  0
 51 52  1  0
 51 53  1  0
 53 54  2  0
 15 11  1  0
 32 28  1  0
 54 34  1  0
 53 37  1  0
 47 41  1  0
M  CHG  1  24   1
M  END

