
     RDKit          3D

 25 26  0  0  0  0  0  0  0  0999 V2000
   -6.1037    1.5062    1.2131 C   0  0  0  0  0  0  0  0  0  0  0  0
   -4.5988    1.3848    1.4991 C   0  0  0  0  0  0  0  0  0  0  0  0
   -3.8963    1.2557    0.2403 N   0  0  0  0  0  0  0  0  0  0  0  0
   -2.4648    1.1361    0.3026 C   0  0  0  0  0  0  0  0  0  0  0  0
   -1.8438    1.1350    1.3536 O   0  0  0  0  0  0  0  0  0  0  0  0
   -1.7232    1.0122   -1.1066 C   0  0  2  0  0  0  0  0  0  0  0  0
   -1.6570   -0.6220   -1.1573 C   0  0  0  0  0  0  0  0  0  0  0  0
   -3.0448   -1.1002   -1.1368 C   0  0  0  0  0  0  0  0  0  0  0  0
   -3.6346   -1.4675    0.0119 C   0  0  0  0  0  0  0  0  0  0  0  0
   -4.9437   -1.8974    0.0190 C   0  0  0  0  0  0  0  0  0  0  0  0
   -5.7015   -1.9734   -1.1279 C   0  0  0  0  0  0  0  0  0  0  0  0
   -5.0999   -1.5996   -2.3037 C   0  0  0  0  0  0  0  0  0  0  0  0
   -3.8054   -1.1736   -2.3137 C   0  0  0  0  0  0  0  0  0  0  0  0
   -0.2837    1.2562   -0.6396 N   0  0  0  0  0  0  0  0  0  0  0  0
    0.7130    0.3233   -0.9065 C   0  0  0  0  0  0  0  0  0  0  0  0
    0.4823   -0.7518   -1.5117 O   0  0  0  0  0  0  0  0  0  0  0  0
    2.1253    0.5712   -0.4795 C   0  0  0  0  0  0  0  0  0  0  0  0
    3.0323   -0.5631   -0.8772 C   0  0  0  0  0  0  0  0  0  0  0  0
    4.4048   -0.2113   -0.4432 C   0  0  0  0  0  0  0  0  0  0  0  0
    5.2926    0.4801   -1.2607 C   0  0  0  0  0  0  0  0  0  0  0  0
    6.5674    0.8124   -0.8458 C   0  0  0  0  0  0  0  0  0  0  0  0
    6.9790    0.4541    0.4104 C   0  0  0  0  0  0  0  0  0  0  0  0
    8.2720    0.8102    0.7855 O   0  0  0  0  0  0  0  0  0  0  0  0
    6.1003   -0.2217    1.2013 C   0  0  0  0  0  0  0  0  0  0  0  0
    4.8322   -0.5559    0.7961 C   0  0  0  0  0  0  0  0  0  0  0  0
  1  2  1  0
  2  3  1  0
  3  4  1  0
  4  5  2  0
  4  6  1  0
  6  7  1  1
  7  8  1  0
  8  9  2  0
  9 10  1  0
 10 11  2  0
 11 12  1  0
 12 13  2  0
  6 14  1  0
 14 15  1  0
 15 16  2  0
 15 17  1  0
 17 18  1  0
 18 19  1  0
 19 20  2  0
 20 21  1  0
 21 22  2  0
 22 23  1  0
 22 24  1  0
 24 25  2  0
 13  8  1  0
 25 19  1  0
M  END

