
     RDKit          3D

 26 27  0  0  0  0  0  0  0  0999 V2000
   -3.7458   -3.4952   -0.0462 C   0  0  0  0  0  0  0  0  0  0  0  0
   -3.5817   -2.4896   -1.1223 C   0  0  0  0  0  0  0  0  0  0  0  0
   -2.0908   -1.7982   -0.9403 C   0  0  2  0  0  0  0  0  0  0  0  0
   -1.3028   -3.2004   -1.1433 C   0  0  0  0  0  0  0  0  0  0  0  0
   -2.0266   -1.9012    0.7349 C   0  0  2  0  0  0  0  0  0  0  0  0
   -3.1486   -1.0669    1.2471 N   0  0  0  0  0  0  0  0  0  0  0  0
   -3.6615    0.0151    0.4795 C   0  0  0  0  0  0  0  0  0  0  0  0
   -2.9700    0.1365   -0.5792 O   0  0  0  0  0  0  0  0  0  0  0  0
   -4.8235    0.8917    0.7995 C   0  0  0  0  0  0  0  0  0  0  0  0
   -4.9242    1.9120   -0.5039 C   0  0  1  0  0  0  0  0  0  0  0  0
   -6.3084    2.6857    0.1120 C   0  0  0  0  0  0  0  0  0  0  0  0
   -4.0390    2.9800    0.2241 O   0  0  0  0  0  0  0  0  0  0  0  0
   -0.7158   -1.1950    0.9832 C   0  0  0  0  0  0  0  0  0  0  0  0
    0.0185   -1.5588    1.9902 O   0  0  0  0  0  0  0  0  0  0  0  0
   -0.2914   -0.1411    0.1214 N   0  0  0  0  0  0  0  0  0  0  0  0
    1.0684    0.3322    0.4675 C   0  0  0  0  0  0  0  0  0  0  0  0
    1.9187   -0.8708   -0.1300 C   0  0  0  0  0  0  0  0  0  0  0  0
    3.2941   -0.5212    0.2438 C   0  0  0  0  0  0  0  0  0  0  0  0
    4.2361   -1.2641    0.8631 C   0  0  0  0  0  0  0  0  0  0  0  0
    5.3627   -0.5304    0.9987 N   0  0  0  0  0  0  0  0  0  0  0  0
    5.1717    0.7113    0.4731 C   0  0  0  0  0  0  0  0  0  0  0  0
    5.9172    1.8610    0.3557 C   0  0  0  0  0  0  0  0  0  0  0  0
    5.3670    2.9744   -0.2260 C   0  0  0  0  0  0  0  0  0  0  0  0
    4.0977    2.9686   -0.6970 C   0  0  0  0  0  0  0  0  0  0  0  0
    3.3187    1.8435   -0.5958 C   0  0  0  0  0  0  0  0  0  0  0  0
    3.8593    0.7209   -0.0094 C   0  0  0  0  0  0  0  0  0  0  0  0
  1  2  1  0
  2  3  1  0
  3  4  1  6
  3  5  1  0
  5  6  1  1
  6  7  1  0
  7  8  2  0
  7  9  1  0
  9 10  1  0
 10 11  1  1
 10 12  1  0
  5 13  1  0
 13 14  2  0
 13 15  1  0
 15 16  1  0
 16 17  1  0
 17 18  1  0
 18 19  2  0
 19 20  1  0
 20 21  1  0
 21 22  2  0
 22 23  1  0
 23 24  2  0
 24 25  1  0
 25 26  2  0
 26 18  1  0
 26 21  1  0
M  END

