
     RDKit          3D

 48 50  0  0  0  0  0  0  0  0999 V2000
    3.4130    1.0260   -1.9658 C   0  0  0  0  0  0  0  0  0  0  0  0
    4.1194    1.0624   -0.4565 C   0  0  2  0  0  0  0  0  0  0  0  0
    5.6280    0.7515   -1.0914 C   0  0  0  0  0  0  0  0  0  0  0  0
    6.4548    0.7350    0.0879 N   0  0  0  0  0  0  0  0  0  0  0  0
    6.7882   -0.2592    0.8924 N   0  0  0  0  0  0  0  0  0  0  0  0
    7.5891    0.1681    1.8870 C   0  0  0  0  0  0  0  0  0  0  0  0
    7.7495    1.4855    1.6758 N   0  0  0  0  0  0  0  0  0  0  0  0
    7.0568    1.7891    0.5913 N   0  0  0  0  0  0  0  0  0  0  0  0
    3.8362   -0.4718   -0.2058 N   0  0  0  0  0  0  0  0  0  0  0  0
    2.4488   -0.7902   -0.2446 C   0  0  0  0  0  0  0  0  0  0  0  0
    2.1078   -2.0532   -0.0456 N   0  0  0  0  0  0  0  0  0  0  0  0
    0.8043   -2.4432   -0.0662 C   0  0  0  0  0  0  0  0  0  0  0  0
   -0.1985   -1.5216   -0.2969 C   0  0  0  0  0  0  0  0  0  0  0  0
   -1.5299   -1.8385   -0.3322 C   0  0  0  0  0  0  0  0  0  0  0  0
   -2.4707   -0.8569   -0.5693 C   0  0  0  0  0  0  0  0  0  0  0  0
   -3.8131   -1.1364   -0.6119 O   0  0  0  0  0  0  0  0  0  0  0  0
   -4.7532   -0.5644    0.2424 C   0  0  0  0  0  0  0  0  0  0  0  0
   -5.8072    0.1887   -0.2350 C   0  0  0  0  0  0  0  0  0  0  0  0
   -6.7320    0.7510    0.6106 C   0  0  0  0  0  0  0  0  0  0  0  0
   -6.6500    0.5886    1.9797 C   0  0  0  0  0  0  0  0  0  0  0  0
   -7.5828    1.1601    2.7772 F   0  0  0  0  0  0  0  0  0  0  0  0
   -5.5999   -0.1617    2.4558 C   0  0  0  0  0  0  0  0  0  0  0  0
   -4.6683   -0.7286    1.6103 C   0  0  0  0  0  0  0  0  0  0  0  0
   -3.6254   -1.4724    2.0652 F   0  0  0  0  0  0  0  0  0  0  0  0
   -2.0893    0.4653   -0.7760 C   0  0  0  0  0  0  0  0  0  0  0  0
   -2.9647    1.3687   -0.9948 O   0  0  0  0  0  0  0  0  0  0  0  0
   -0.7797    0.7371   -0.7343 N   0  0  0  0  0  0  0  0  0  0  0  0
   -0.3696    2.1113   -0.9481 C   0  0  0  0  0  0  0  0  0  0  0  0
    0.1657   -0.1947   -0.5056 C   0  0  0  0  0  0  0  0  0  0  0  0
    1.4726    0.1046   -0.4689 N   0  0  0  0  0  0  0  0  0  0  0  0
   -2.3731    3.0155    2.3611 O   0  0  0  0  0  1  0  0  0  0  0  0
   -2.6497    1.8363    1.6978 C   0  0  0  0  0  0  0  0  0  0  0  0
   -3.7629    1.6785    1.1746 O   0  0  0  0  0  0  0  0  0  0  0  0
   -1.5976    0.8056    1.6428 C   0  0  0  0  0  0  0  0  0  0  0  0
   -0.6891    1.1186    0.4501 C   0  0  0  0  0  0  0  0  0  0  0  0
    0.4371   -0.0647    0.4592 C   0  0  2  0  0  0  0  0  0  0  0  0
    1.1560    0.5313   -0.8013 N   0  0  0  0  0  0  0  0  0  0  0  0
    2.5689    0.5543   -0.7659 C   0  0  0  0  0  0  0  0  0  0  0  0
    3.1359    0.1143    0.2326 O   0  0  0  0  0  0  0  0  0  0  0  0
    3.3662    1.1093   -1.9402 C   0  0  0  0  0  0  0  0  0  0  0  0
    4.8208    0.9677   -1.5945 C   0  0  0  0  0  0  0  0  0  0  0  0
    5.2163    1.6337   -0.4597 O   0  0  0  0  0  0  0  0  0  0  0  0
   -0.3970   -1.1448   -0.3606 C   0  0  0  0  0  0  0  0  0  0  0  0
   -0.7902   -0.9406   -1.4989 O   0  0  0  0  0  0  0  0  0  0  0  0
   -0.6734   -2.3743    0.2740 N   0  0  0  0  0  0  0  0  0  0  0  0
   -1.4397   -3.3957   -0.4451 C   0  0  0  0  0  0  0  0  0  0  0  0
   -2.8279   -2.8854   -0.8053 C   0  0  0  0  0  0  0  0  0  0  0  0
   -3.5005   -2.5598    0.3793 O   0  0  0  0  0  0  0  0  0  0  0  0
  2  1  1  6
  2  3  1  0
  3  4  1  0
  4  5  1  0
  5  6  2  0
  6  7  1  0
  7  8  2  0
  2  9  1  0
  9 10  1  0
 10 11  2  0
 11 12  1  0
 12 13  2  0
 13 14  1  0
 14 15  2  0
 15 16  1  0
 16 17  1  0
 17 18  2  0
 18 19  1  0
 19 20  2  0
 20 21  1  0
 20 22  1  0
 22 23  2  0
 23 24  1  0
 15 25  1  0
 25 26  2  0
 25 27  1  0
 27 28  1  0
 27 29  1  0
 29 30  2  0
 31 32  1  0
 32 33  2  0
 32 34  1  0
 34 35  1  0
 36 35  1  6
 36 37  1  0
 37 38  1  0
 38 39  2  0
 38 40  1  0
 40 41  1  0
 41 42  1  0
 36 43  1  0
 43 44  2  0
 43 45  1  0
 45 46  1  0
 46 47  1  0
 47 48  1  0
  8  4  1  0
 30 10  1  0
 29 13  1  0
 23 17  1  0
M  RAD  1  31   2
M  END

