
     RDKit          3D

 53 55  0  0  0  0  0  0  0  0999 V2000
   -3.6065    3.1874    1.0725 C   0  0  0  0  0  0  0  0  0  0  0  0
   -3.0678    1.4905    0.7501 S   0  0  0  0  0  0  0  0  0  0  0  0
   -3.9502    0.3537    1.8251 C   0  0  0  0  0  0  0  0  0  0  0  0
   -3.5638   -1.0799    1.6108 C   0  0  0  0  0  0  0  0  0  0  0  0
   -3.8280   -1.5135    0.2032 C   0  0  0  0  0  0  0  0  0  0  0  0
   -3.0049   -0.6985   -0.6664 N   0  0  0  0  0  0  0  0  0  0  0  0
   -1.6076   -0.6766   -0.6249 C   0  0  0  0  0  0  0  0  0  0  0  0
   -0.9807   -1.3630    0.1661 O   0  0  0  0  0  0  0  0  0  0  0  0
   -0.7958    0.2406   -1.6040 C   0  0  2  0  0  0  0  0  0  0  0  0
   -0.8662   -0.7579   -2.9101 C   0  0  0  0  0  0  0  0  0  0  0  0
   -0.2604   -2.0223   -2.6452 C   0  0  0  0  0  0  0  0  0  0  0  0
    1.1533   -2.1351   -2.2702 C   0  0  0  0  0  0  0  0  0  0  0  0
    1.6341   -3.5283   -2.0282 C   0  0  0  0  0  0  0  0  0  0  0  0
    3.0416   -3.4968   -1.6671 N   0  0  0  0  0  4  0  0  0  0  0  0
    0.6434   -0.1725   -1.1770 N   0  0  0  0  0  0  0  0  0  0  0  0
    1.0138    0.2436    0.1258 C   0  0  0  0  0  0  0  0  0  0  0  0
    0.1958    0.8899    0.8141 O   0  0  0  0  0  0  0  0  0  0  0  0
    2.3532   -0.0648    0.7109 C   0  0  0  0  0  0  0  0  0  0  0  0
    2.4445    0.4619    2.1085 C   0  0  0  0  0  0  0  0  0  0  0  0
    2.2627    1.9388    2.2158 C   0  0  0  0  0  0  0  0  0  0  0  0
    3.3133    2.6370    1.4215 C   0  0  0  0  0  0  0  0  0  0  0  0
    3.2946    4.0335    1.4312 O   0  0  0  0  0  1  0  0  0  0  0  0
    4.1818    2.0322    0.7693 O   0  0  0  0  0  0  0  0  0  0  0  0
    3.3261    0.9607    1.8121 C   0  0  0  0  0  0  0  0  0  0  0  0
    4.1340   -0.4564    2.1109 C   0  0  2  0  0  0  0  0  0  0  0  0
    5.6181    0.2147    1.8396 C   0  0  0  0  0  0  0  0  0  0  0  0
    5.6552    0.7142    0.5140 N   0  0  0  0  0  0  0  0  0  0  0  0
    5.3509    1.8845   -0.0217 N   0  0  0  0  0  0  0  0  0  0  0  0
    5.5514    1.8826   -1.3353 C   0  0  0  0  0  0  0  0  0  0  0  0
    6.0020    0.6582   -1.6442 N   0  0  0  0  0  0  0  0  0  0  0  0
    6.0536   -0.0201   -0.5137 N   0  0  0  0  0  0  0  0  0  0  0  0
    3.9490   -1.0022    0.6431 N   0  0  0  0  0  0  0  0  0  0  0  0
    2.6263   -1.1686    0.1967 C   0  0  0  0  0  0  0  0  0  0  0  0
    2.3286   -1.6270   -1.0359 N   0  0  0  0  0  0  0  0  0  0  0  0
    1.0594   -1.7708   -1.4216 C   0  0  0  0  0  0  0  0  0  0  0  0
    0.0194   -1.4548   -0.5710 C   0  0  0  0  0  0  0  0  0  0  0  0
   -1.2921   -1.5900   -0.9335 C   0  0  0  0  0  0  0  0  0  0  0  0
   -2.2767   -1.2549   -0.0315 C   0  0  0  0  0  0  0  0  0  0  0  0
   -3.6026   -1.3844   -0.3786 O   0  0  0  0  0  0  0  0  0  0  0  0
   -4.4032   -0.2514   -0.3627 C   0  0  0  0  0  0  0  0  0  0  0  0
   -5.5255   -0.1401    0.4398 C   0  0  0  0  0  0  0  0  0  0  0  0
   -6.2918    0.9967    0.4275 C   0  0  0  0  0  0  0  0  0  0  0  0
   -5.9774    2.0679   -0.3795 C   0  0  0  0  0  0  0  0  0  0  0  0
   -6.7516    3.1800   -0.3727 F   0  0  0  0  0  0  0  0  0  0  0  0
   -4.8596    1.9561   -1.1782 C   0  0  0  0  0  0  0  0  0  0  0  0
   -4.0897    0.8217   -1.1699 C   0  0  0  0  0  0  0  0  0  0  0  0
   -2.9853    0.7284   -1.9681 F   0  0  0  0  0  0  0  0  0  0  0  0
   -1.9086   -0.7884    1.2228 C   0  0  0  0  0  0  0  0  0  0  0  0
   -2.7973   -0.4834    2.0438 O   0  0  0  0  0  0  0  0  0  0  0  0
   -0.6335   -0.6566    1.5764 N   0  0  0  0  0  0  0  0  0  0  0  0
   -0.2392   -0.1711    2.8818 C   0  0  0  0  0  0  0  0  0  0  0  0
    0.3433   -0.9859    0.6898 C   0  0  0  0  0  0  0  0  0  0  0  0
    1.6170   -0.8597    1.0282 N   0  0  0  0  0  0  0  0  0  0  0  0
  1  2  1  0
  2  3  1  0
  3  4  1  0
  4  5  1  0
  5  6  1  0
  6  7  1  0
  7  8  2  0
  7  9  1  0
  9 10  1  6
 10 11  1  0
 11 12  1  0
 12 13  1  0
 13 14  1  0
  9 15  1  0
 15 16  1  0
 16 17  2  0
 16 18  1  0
 18 19  1  0
 19 20  1  0
 20 21  1  0
 21 22  1  0
 21 23  2  0
 25 24  1  6
 25 26  1  0
 26 27  1  0
 27 28  1  0
 28 29  2  0
 29 30  1  0
 30 31  2  0
 25 32  1  0
 32 33  1  0
 33 34  2  0
 34 35  1  0
 35 36  2  0
 36 37  1  0
 37 38  2  0
 38 39  1  0
 39 40  1  0
 40 41  2  0
 41 42  1  0
 42 43  2  0
 43 44  1  0
 43 45  1  0
 45 46  2  0
 46 47  1  0
 38 48  1  0
 48 49  2  0
 48 50  1  0
 50 51  1  0
 50 52  1  0
 52 53  2  0
 31 27  1  0
 53 33  1  0
 52 36  1  0
 46 40  1  0
M  CHG  1  14   1
M  RAD  1  22   2
M  END

