
     RDKit          3D

 51 53  0  0  0  0  0  0  0  0999 V2000
   -3.1542   -0.5391    2.7899 C   0  0  0  0  0  0  0  0  0  0  0  0
   -3.0284   -1.3789    1.5652 C   0  0  0  0  0  0  0  0  0  0  0  0
   -4.1824   -0.9262    0.5276 C   0  0  2  0  0  0  0  0  0  0  0  0
   -3.7830   -1.9761   -0.6265 C   0  0  0  0  0  0  0  0  0  0  0  0
   -3.4169    0.3434   -0.0782 C   0  0  0  0  0  0  0  0  0  0  0  0
   -2.1481   -0.0789   -0.6830 C   0  0  0  0  0  0  0  0  0  0  0  0
   -1.7004   -1.2264   -0.7028 O   0  0  0  0  0  0  0  0  0  0  0  0
   -1.2589    0.8068   -1.3356 N   0  0  0  0  0  0  0  0  0  0  0  0
    0.0446    0.1991   -1.9225 C   0  0  1  0  0  0  0  0  0  0  0  0
    0.6002    1.6391   -2.4562 C   0  0  0  0  0  0  0  0  0  0  0  0
    0.7713    2.5802   -1.3863 C   0  0  0  0  0  0  0  0  0  0  0  0
   -0.7006    3.0003   -0.4252 S   0  0  0  0  0  0  0  0  0  0  0  0
   -1.8161    3.8916   -1.5759 C   0  0  0  0  0  0  0  0  0  0  0  0
    0.8967    0.1103   -0.6070 C   0  0  0  0  0  0  0  0  0  0  0  0
    0.5838    0.4326    0.4773 O   0  0  0  0  0  0  0  0  0  0  0  0
    2.1700   -0.4281   -0.8340 N   0  0  0  0  0  0  0  0  0  0  0  0
    3.2104   -0.6631    0.0934 C   0  0  0  0  0  0  0  0  0  0  0  0
    2.9214   -1.5903    1.2223 C   0  0  0  0  0  0  0  0  0  0  0  0
    4.1862   -1.6662    2.0566 C   0  0  0  0  0  0  0  0  0  0  0  0
    5.3065   -2.1885    1.2032 C   0  0  0  0  0  0  0  0  0  0  0  0
    4.4980   -0.3416    2.6977 C   0  0  0  0  0  0  0  0  0  0  0  0
   -3.5973   -0.4645   -2.5804 C   0  0  0  0  0  0  0  0  0  0  0  0
   -4.5089   -1.5053   -1.6844 C   0  0  2  0  0  0  0  0  0  0  0  0
   -4.0826   -0.8241   -0.2540 C   0  0  0  0  0  0  0  0  0  0  0  0
   -4.5986    0.5403   -0.4394 N   0  0  0  0  0  0  0  0  0  0  0  0
   -5.8175    0.8679   -0.0691 N   0  0  0  0  0  0  0  0  0  0  0  0
   -6.0429    2.1573   -0.3581 C   0  0  0  0  0  0  0  0  0  0  0  0
   -4.9094    2.6125   -0.9235 N   0  0  0  0  0  0  0  0  0  0  0  0
   -4.0562    1.6027   -0.9556 N   0  0  0  0  0  0  0  0  0  0  0  0
   -3.5078   -2.6507   -1.6782 N   0  0  0  0  0  0  0  0  0  0  0  0
   -2.2360   -2.4066   -1.1141 C   0  0  0  0  0  0  0  0  0  0  0  0
   -1.3101   -3.4222   -1.1015 N   0  0  0  0  0  0  0  0  0  0  0  0
   -0.0886   -3.3240   -0.5974 C   0  0  0  0  0  0  0  0  0  0  0  0
    0.3153   -2.1384   -0.0397 C   0  0  0  0  0  0  0  0  0  0  0  0
    1.5803   -1.9713    0.5061 C   0  0  0  0  0  0  0  0  0  0  0  0
    1.8728   -0.7373    1.0390 C   0  0  0  0  0  0  0  0  0  0  0  0
    3.1152   -0.4932    1.6022 O   0  0  0  0  0  0  0  0  0  0  0  0
    3.9688    0.4756    1.1458 C   0  0  0  0  0  0  0  0  0  0  0  0
    4.3781    1.4953    1.9554 C   0  0  0  0  0  0  0  0  0  0  0  0
    5.2451    2.4856    1.5033 C   0  0  0  0  0  0  0  0  0  0  0  0
    5.7035    2.4377    0.2057 C   0  0  0  0  0  0  0  0  0  0  0  0
    6.5542    3.3875   -0.2782 F   0  0  0  0  0  0  0  0  0  0  0  0
    5.2836    1.4029   -0.6039 C   0  0  0  0  0  0  0  0  0  0  0  0
    4.4202    0.4218   -0.1443 C   0  0  0  0  0  0  0  0  0  0  0  0
    4.0285   -0.5824   -0.9718 F   0  0  0  0  0  0  0  0  0  0  0  0
    0.9461    0.2781    1.0263 C   0  0  0  0  0  0  0  0  0  0  0  0
    1.2608    1.3890    1.5260 O   0  0  0  0  0  0  0  0  0  0  0  0
   -0.2749    0.1031    0.4947 N   0  0  0  0  0  0  0  0  0  0  0  0
   -1.2064    1.2194    0.5183 C   0  0  0  0  0  0  0  0  0  0  0  0
   -0.5956   -1.1063   -0.0409 C   0  0  0  0  0  0  0  0  0  0  0  0
   -1.8396   -1.2502   -0.5694 N   0  0  0  0  0  0  0  0  0  0  0  0
  1  2  1  0
  2  3  1  0
  3  4  1  6
  3  5  1  0
  5  6  1  0
  6  7  2  0
  6  8  1  0
  8  9  1  0
  9 10  1  6
 10 11  1  0
 11 12  1  0
 12 13  1  0
  9 14  1  0
 14 15  2  0
 14 16  1  0
 16 17  1  0
 17 18  1  0
 18 19  1  0
 19 20  1  0
 19 21  1  0
 23 22  1  6
 23 24  1  0
 24 25  1  0
 25 26  1  0
 26 27  2  0
 27 28  1  0
 28 29  2  0
 23 30  1  0
 30 31  1  0
 31 32  2  0
 32 33  1  0
 33 34  2  0
 34 35  1  0
 35 36  2  0
 36 37  1  0
 37 38  1  0
 38 39  2  0
 39 40  1  0
 40 41  2  0
 41 42  1  0
 41 43  1  0
 43 44  2  0
 44 45  1  0
 36 46  1  0
 46 47  2  0
 46 48  1  0
 48 49  1  0
 48 50  1  0
 50 51  2  0
 29 25  1  0
 51 31  1  0
 50 34  1  0
 44 38  1  0
M  END

