
     RDKit          3D

 47 49  0  0  0  0  0  0  0  0999 V2000
   -3.8166    3.0177   -1.6015 C   0  0  0  0  0  0  0  0  0  0  0  0
   -4.5625    1.7395   -1.2934 C   0  0  0  0  0  0  0  0  0  0  0  0
   -3.4144    0.5599   -1.3212 C   0  0  2  0  0  0  0  0  0  0  0  0
   -4.4976   -0.6296   -0.9683 C   0  0  0  0  0  0  0  0  0  0  0  0
   -3.0077    0.7845    0.2543 C   0  0  0  0  0  0  0  0  0  0  0  0
   -1.9244   -0.2282    0.4761 C   0  0  0  0  0  0  0  0  0  0  0  0
   -1.5152   -1.0109   -0.4277 O   0  0  0  0  0  0  0  0  0  0  0  0
   -1.3169   -0.3271    1.7573 N   0  0  0  0  0  0  0  0  0  0  0  0
   -0.2872   -1.2715    2.0126 C   0  0  0  0  0  0  0  0  0  0  0  0
    0.9088   -1.1128    1.1755 C   0  0  0  0  0  0  0  0  0  0  0  0
    1.8560   -1.9291    1.3631 O   0  0  0  0  0  0  0  0  0  0  0  0
    1.0644   -0.1087    0.1788 N   0  0  0  0  0  0  0  0  0  0  0  0
    2.3180   -0.0754   -0.5785 C   0  0  0  0  0  0  0  0  0  0  0  0
    3.4311    0.1347    0.4115 C   0  0  0  0  0  0  0  0  0  0  0  0
    4.7831    0.1913   -0.2150 C   0  0  0  0  0  0  0  0  0  0  0  0
    5.0741   -1.1033   -0.9411 C   0  0  0  0  0  0  0  0  0  0  0  0
    4.9069    1.3690   -1.1516 C   0  0  0  0  0  0  0  0  0  0  0  0
   -3.5078    1.8952   -1.2433 C   0  0  0  0  0  0  0  0  0  0  0  0
   -4.2551    0.4716   -0.8514 C   0  0  2  0  0  0  0  0  0  0  0  0
   -5.7294    1.2106   -0.6800 C   0  0  0  0  0  0  0  0  0  0  0  0
   -6.6385    0.1496   -0.3170 N   0  0  0  0  0  0  0  0  0  0  0  0
   -7.3694   -0.6387   -1.0958 N   0  0  0  0  0  0  0  0  0  0  0  0
   -8.0374   -1.4527   -0.2576 C   0  0  0  0  0  0  0  0  0  0  0  0
   -7.7138   -1.1596    1.0122 N   0  0  0  0  0  0  0  0  0  0  0  0
   -6.8513   -0.1699    0.9475 N   0  0  0  0  0  0  0  0  0  0  0  0
   -3.8887    0.6064    0.6783 N   0  0  0  0  0  0  0  0  0  0  0  0
   -2.4697    0.6604    0.8956 C   0  0  0  0  0  0  0  0  0  0  0  0
   -2.0274    0.7747    2.1520 N   0  0  0  0  0  0  0  0  0  0  0  0
   -0.6896    0.8311    2.4234 C   0  0  0  0  0  0  0  0  0  0  0  0
    0.2431    0.7721    1.4128 C   0  0  0  0  0  0  0  0  0  0  0  0
    1.6114    0.8239    1.6181 C   0  0  0  0  0  0  0  0  0  0  0  0
    2.5067    0.7612    0.5735 C   0  0  0  0  0  0  0  0  0  0  0  0
    3.8752    0.8077    0.7149 O   0  0  0  0  0  0  0  0  0  0  0  0
    4.6977   -0.2295    0.2904 C   0  0  0  0  0  0  0  0  0  0  0  0
    4.1983   -1.3719   -0.2994 C   0  0  0  0  0  0  0  0  0  0  0  0
    5.0520   -2.3862   -0.7102 C   0  0  0  0  0  0  0  0  0  0  0  0
    6.4198   -2.3055   -0.5525 C   0  0  0  0  0  0  0  0  0  0  0  0
    7.2571   -3.2972   -0.9539 F   0  0  0  0  0  0  0  0  0  0  0  0
    6.9051   -1.1574    0.0388 C   0  0  0  0  0  0  0  0  0  0  0  0
    6.0570   -0.1385    0.4522 C   0  0  0  0  0  0  0  0  0  0  0  0
    6.5401    0.9936    1.0357 F   0  0  0  0  0  0  0  0  0  0  0  0
    1.9846    0.6442   -0.6913 C   0  0  0  0  0  0  0  0  0  0  0  0
    2.7853    0.5856   -1.6560 O   0  0  0  0  0  0  0  0  0  0  0  0
    0.6365    0.5924   -0.9031 N   0  0  0  0  0  0  0  0  0  0  0  0
    0.2010    0.4685   -2.2788 C   0  0  0  0  0  0  0  0  0  0  0  0
   -0.2319    0.6544    0.1238 C   0  0  0  0  0  0  0  0  0  0  0  0
   -1.5608    0.6036   -0.0813 N   0  0  0  0  0  0  0  0  0  0  0  0
  1  2  1  0
  2  3  1  0
  3  4  1  1
  3  5  1  0
  5  6  1  0
  6  7  2  0
  6  8  1  0
  8  9  1  0
  9 10  1  0
 10 11  2  0
 10 12  1  0
 12 13  1  0
 13 14  1  0
 14 15  1  0
 15 16  1  0
 15 17  1  0
 19 18  1  6
 19 20  1  0
 20 21  1  0
 21 22  1  0
 22 23  2  0
 23 24  1  0
 24 25  2  0
 19 26  1  0
 26 27  1  0
 27 28  2  0
 28 29  1  0
 29 30  2  0
 30 31  1  0
 31 32  2  0
 32 33  1  0
 33 34  1  0
 34 35  2  0
 35 36  1  0
 36 37  2  0
 37 38  1  0
 37 39  1  0
 39 40  2  0
 40 41  1  0
 32 42  1  0
 42 43  2  0
 42 44  1  0
 44 45  1  0
 44 46  1  0
 46 47  2  0
 25 21  1  0
 47 27  1  0
 46 30  1  0
 40 34  1  0
M  END

