
     RDKit          3D

 24 24  0  0  0  0  0  0  0  0999 V2000
   -7.0148   -0.4318    0.7017 C   0  0  0  0  0  0  0  0  0  0  0  0
   -5.8088   -0.3530   -0.1044 C   0  0  0  0  0  0  0  0  0  0  0  0
   -5.4186    0.9455   -0.7600 C   0  0  0  0  0  0  0  0  0  0  0  0
   -5.4283   -1.5828   -0.9071 C   0  0  0  0  0  0  0  0  0  0  0  0
   -4.0854   -1.0329   -1.5531 C   0  0  0  0  0  0  0  0  0  0  0  0
   -3.3205   -0.6710   -0.2558 C   0  0  0  0  0  0  0  0  0  0  0  0
   -3.5566   -1.3072    0.7697 O   0  0  0  0  0  0  0  0  0  0  0  0
   -2.4541    0.3350   -0.2869 N   0  0  0  0  0  0  0  0  0  0  0  0
   -1.6515    0.9043    0.8860 C   0  0  2  0  0  0  0  0  0  0  0  0
   -0.2139    0.8742    0.4299 C   0  0  0  0  0  0  0  0  0  0  0  0
    0.5310    0.1067    1.1082 O   0  0  0  0  0  0  0  0  0  0  0  0
    0.3677    1.5906   -0.6121 N   0  0  0  0  0  0  0  0  0  0  0  0
    1.7998    1.3935   -0.7183 C   0  0  0  0  0  0  0  0  0  0  0  0
    2.0653   -0.1565   -0.7068 C   0  0  0  0  0  0  0  0  0  0  0  0
    3.5456   -0.2331   -0.6938 C   0  0  0  0  0  0  0  0  0  0  0  0
    4.3611   -0.5287   -1.7221 C   0  0  0  0  0  0  0  0  0  0  0  0
    5.7530   -0.4897   -1.7061 C   0  0  0  0  0  0  0  0  0  0  0  0
    6.3744   -0.1160   -0.5218 C   0  0  0  0  0  0  0  0  0  0  0  0
    7.7626   -0.0552   -0.4526 O   0  0  0  0  0  0  0  0  0  0  0  0
    5.5832    0.1814    0.5476 C   0  0  0  0  0  0  0  0  0  0  0  0
    4.2200    0.1284    0.4774 C   0  0  0  0  0  0  0  0  0  0  0  0
   -1.7885   -0.4399    1.9142 C   0  0  1  0  0  0  0  0  0  0  0  0
   -0.7580   -1.4412    1.2308 C   0  0  0  0  0  0  0  0  0  0  0  0
   -0.8646    0.1325    2.9352 O   0  0  0  0  0  0  0  0  0  0  0  0
  1  2  1  0
  2  3  1  0
  2  4  1  0
  4  5  1  0
  5  6  1  0
  6  7  2  0
  6  8  1  0
  9  8  1  6
  9 10  1  0
 10 11  2  0
 10 12  1  0
 12 13  1  0
 13 14  1  0
 14 15  1  0
 15 16  2  0
 16 17  1  0
 17 18  2  0
 18 19  1  0
 18 20  1  0
 20 21  2  0
  9 22  1  0
 22 23  1  6
 22 24  1  0
 21 15  1  0
M  END

