
     RDKit          3D

 19 18  0  0  0  0  0  0  0  0999 V2000
   -0.8760    0.5381    1.9494 C   0  0  0  0  0  0  0  0  0  0  0  0
   -0.5661   -0.8362    1.5639 C   0  0  0  0  0  0  0  0  0  0  0  0
    0.2783   -1.6194    2.4756 C   0  0  0  0  0  0  0  0  0  0  0  0
    0.1633   -0.8011    0.0871 C   0  0  2  0  0  0  0  0  0  0  0  0
    1.3790    0.0830    0.5265 N   0  0  0  0  0  0  0  0  0  0  0  0
    2.6753   -0.3516    0.1370 C   0  0  0  0  0  0  0  0  0  0  0  0
    2.8620   -1.4052   -0.5482 O   0  0  0  0  0  0  0  0  0  0  0  0
    3.8400    0.4607    0.5464 C   0  0  0  0  0  0  0  0  0  0  0  0
    5.0514   -0.2896   -0.2987 C   0  0  1  0  0  0  0  0  0  0  0  0
    4.3024    0.0547   -1.7852 C   0  0  0  0  0  0  0  0  0  0  0  0
    5.9046    1.0021   -0.3854 O   0  0  0  0  0  0  0  0  0  0  0  0
   -0.7222    0.3372   -0.5183 C   0  0  0  0  0  0  0  0  0  0  0  0
   -0.1859    1.3950   -0.7925 O   0  0  0  0  0  0  0  0  0  0  0  0
   -2.0918    0.1236   -0.7234 N   0  0  0  0  0  0  0  0  0  0  0  0
   -3.0050    1.0860   -1.2739 C   0  0  0  0  0  0  0  0  0  0  0  0
   -4.3764    0.3856   -1.2597 C   0  0  0  0  0  0  0  0  0  0  0  0
   -4.7263    0.0703    0.1366 C   0  0  0  0  0  0  0  0  0  0  0  0
   -5.8813   -0.6316    0.4199 O   0  0  0  0  0  1  0  0  0  0  0  0
   -4.0253    0.3984    1.1398 O   0  0  0  0  0  0  0  0  0  0  0  0
  1  2  1  0
  2  3  1  0
  2  4  1  0
  4  5  1  1
  5  6  1  0
  6  7  2  0
  6  8  1  0
  8  9  1  0
  9 10  1  6
  9 11  1  0
  4 12  1  0
 12 13  2  0
 12 14  1  0
 14 15  1  0
 15 16  1  0
 16 17  1  0
 17 18  1  0
 17 19  2  0
M  RAD  1  18   2
M  END

