
     RDKit          3D

 24 24  0  0  0  0  0  0  0  0999 V2000
   -4.7012   -3.2684   -1.7916 C   0  0  0  0  0  0  0  0  0  0  0  0
   -5.1674   -2.3340   -0.7259 C   0  0  0  0  0  0  0  0  0  0  0  0
   -6.0766   -1.2697   -1.2850 C   0  0  0  0  0  0  0  0  0  0  0  0
   -3.9697   -1.7537   -0.0169 C   0  0  0  0  0  0  0  0  0  0  0  0
   -3.1143   -1.0084   -1.0003 C   0  0  0  0  0  0  0  0  0  0  0  0
   -1.9242   -0.3981   -0.3954 C   0  0  0  0  0  0  0  0  0  0  0  0
   -1.6714   -0.4830    0.7710 O   0  0  0  0  0  0  0  0  0  0  0  0
   -0.9141    0.3325   -0.9057 N   0  0  0  0  0  0  0  0  0  0  0  0
    0.2499    0.8983   -0.1477 C   0  0  1  0  0  0  0  0  0  0  0  0
   -0.5703    1.2512    1.2132 C   0  0  0  0  0  0  0  0  0  0  0  0
   -1.6272    2.2336    0.7472 C   0  0  0  0  0  0  0  0  0  0  0  0
   -0.8345    3.4147    0.1696 C   0  0  0  0  0  0  0  0  0  0  0  0
   -1.8120    4.4502   -0.3400 C   0  0  0  0  0  0  0  0  0  0  0  0
   -2.5970    3.8003   -1.3679 N   0  0  0  0  0  4  0  0  0  0  0  0
    1.0639   -0.2516    0.4832 C   0  0  0  0  0  0  0  0  0  0  0  0
    0.6306   -1.3469    0.0769 O   0  0  0  0  0  0  0  0  0  0  0  0
    2.0658   -0.2943    1.3160 N   0  0  0  0  0  0  0  0  0  0  0  0
    2.8220   -1.3383    1.8916 C   0  0  0  0  0  0  0  0  0  0  0  0
    3.4705   -2.0342    0.6727 C   0  0  0  0  0  0  0  0  0  0  0  0
    4.2805   -0.9381    0.0716 C   0  0  0  0  0  0  0  0  0  0  0  0
    5.5730   -0.7016    0.4098 C   0  0  0  0  0  0  0  0  0  0  0  0
    5.9847    0.3522   -0.3072 N   0  0  0  0  0  0  0  0  0  0  0  0
    4.9450    0.7401   -1.0662 C   0  0  0  0  0  0  0  0  0  0  0  0
    3.8940   -0.0527   -0.8354 N   0  0  0  0  0  0  0  0  0  0  0  0
  1  2  1  0
  2  3  1  0
  2  4  1  0
  4  5  1  0
  5  6  1  0
  6  7  2  0
  6  8  1  0
  8  9  1  0
  9 10  1  1
 10 11  1  0
 11 12  1  0
 12 13  1  0
 13 14  1  0
  9 15  1  0
 15 16  2  0
 15 17  1  0
 17 18  1  0
 18 19  1  0
 19 20  1  0
 20 21  2  0
 21 22  1  0
 22 23  1  0
 23 24  2  0
 24 20  1  0
M  CHG  1  14   1
M  END

