
     RDKit          3D

 50 52  0  0  0  0  0  0  0  0999 V2000
    5.3348   -0.1798   -1.4925 C   0  0  0  0  0  0  0  0  0  0  0  0
    5.1908    0.0251   -0.0253 C   0  0  0  0  0  0  0  0  0  0  0  0
    4.8544   -1.1805    0.7779 C   0  0  0  0  0  0  0  0  0  0  0  0
    4.5928    1.3085    0.3944 C   0  0  0  0  0  0  0  0  0  0  0  0
    3.2823    1.4942   -0.1122 N   0  0  0  0  0  0  0  0  0  0  0  0
    2.2325    0.6868    0.2358 C   0  0  0  0  0  0  0  0  0  0  0  0
    2.2963   -0.2628    1.0111 O   0  0  0  0  0  0  0  0  0  0  0  0
    0.7702    0.9337   -0.3666 C   0  0  1  0  0  0  0  0  0  0  0  0
    0.0063    0.0477    0.6229 N   0  0  0  0  0  0  0  0  0  0  0  0
   -1.3583   -0.2376    0.3437 C   0  0  0  0  0  0  0  0  0  0  0  0
   -1.9547    0.1672   -0.6392 O   0  0  0  0  0  0  0  0  0  0  0  0
   -2.0644   -1.0917    1.3497 C   0  0  0  0  0  0  0  0  0  0  0  0
   -3.5212   -1.1839    1.0121 C   0  0  0  0  0  0  0  0  0  0  0  0
   -3.6737   -1.7971   -0.3555 C   0  0  0  0  0  0  0  0  0  0  0  0
   -5.1104   -1.9055   -0.7481 C   0  0  0  0  0  0  0  0  0  0  0  0
   -5.5757   -2.4202   -1.9542 N   0  0  0  0  0  0  0  0  0  0  0  0
   -5.9522   -1.4855    0.1153 O   0  0  0  0  0  0  0  0  0  0  0  0
    0.5220    2.5178    0.2677 C   0  0  1  0  0  0  0  0  0  0  0  0
   -1.0025    2.2266    0.7859 C   0  0  0  0  0  0  0  0  0  0  0  0
    1.1307    2.3370    1.6417 O   0  0  0  0  0  0  0  0  0  0  0  0
    4.6755    0.4389    0.4674 C   0  0  0  0  0  0  0  0  0  0  0  0
    4.7151   -1.1755    0.0697 C   0  0  2  0  0  0  0  0  0  0  0  0
    5.8291   -0.9282   -1.1492 C   0  0  0  0  0  0  0  0  0  0  0  0
    6.9757   -0.3604   -0.4609 N   0  0  0  0  0  0  0  0  0  0  0  0
    8.0041   -0.9326    0.0861 N   0  0  0  0  0  0  0  0  0  0  0  0
    8.8004    0.0083    0.5998 C   0  0  0  0  0  0  0  0  0  0  0  0
    8.2236    1.1908    0.3490 N   0  0  0  0  0  0  0  0  0  0  0  0
    7.1180    0.9431   -0.2952 N   0  0  0  0  0  0  0  0  0  0  0  0
    3.4908   -1.0423   -0.9337 N   0  0  0  0  0  0  0  0  0  0  0  0
    2.2989   -0.5820   -0.3018 C   0  0  0  0  0  0  0  0  0  0  0  0
    2.2112   -0.2915    0.9935 N   0  0  0  0  0  0  0  0  0  0  0  0
    1.0334    0.1352    1.4807 C   0  0  0  0  0  0  0  0  0  0  0  0
   -0.0920    0.2879    0.7058 C   0  0  0  0  0  0  0  0  0  0  0  0
   -1.3040    0.7262    1.2034 C   0  0  0  0  0  0  0  0  0  0  0  0
   -2.3881    0.8533    0.3597 C   0  0  0  0  0  0  0  0  0  0  0  0
   -3.6256    1.2895    0.8126 O   0  0  0  0  0  0  0  0  0  0  0  0
   -4.7565    0.4893    0.6970 C   0  0  0  0  0  0  0  0  0  0  0  0
   -4.7475   -0.7665    0.1406 C   0  0  0  0  0  0  0  0  0  0  0  0
   -5.9136   -1.5093    0.0578 C   0  0  0  0  0  0  0  0  0  0  0  0
   -7.1222   -1.0328    0.5223 C   0  0  0  0  0  0  0  0  0  0  0  0
   -8.2639   -1.7652    0.4390 F   0  0  0  0  0  0  0  0  0  0  0  0
   -7.1274    0.2296    1.0809 C   0  0  0  0  0  0  0  0  0  0  0  0
   -5.9612    0.9721    1.1636 C   0  0  0  0  0  0  0  0  0  0  0  0
   -5.9867    2.2187    1.7194 F   0  0  0  0  0  0  0  0  0  0  0  0
   -2.2362    0.5339   -0.9897 C   0  0  0  0  0  0  0  0  0  0  0  0
   -3.2188    0.6521   -1.7400 O   0  0  0  0  0  0  0  0  0  0  0  0
   -1.0355    0.1115   -1.4253 N   0  0  0  0  0  0  0  0  0  0  0  0
   -0.8641   -0.2261   -2.8368 C   0  0  0  0  0  0  0  0  0  0  0  0
    0.0354   -0.0225   -0.6329 C   0  0  0  0  0  0  0  0  0  0  0  0
    1.2319   -0.4454   -1.0766 N   0  0  0  0  0  0  0  0  0  0  0  0
  1  2  1  0
  2  3  1  0
  2  4  1  0
  4  5  1  0
  5  6  1  0
  6  7  2  0
  6  8  1  0
  8  9  1  1
  9 10  1  0
 10 11  2  0
 10 12  1  0
 12 13  1  0
 13 14  1  0
 14 15  1  0
 15 16  1  0
 15 17  2  0
  8 18  1  0
 18 19  1  1
 18 20  1  0
 22 21  1  1
 22 23  1  0
 23 24  1  0
 24 25  1  0
 25 26  2  0
 26 27  1  0
 27 28  2  0
 22 29  1  0
 29 30  1  0
 30 31  2  0
 31 32  1  0
 32 33  2  0
 33 34  1  0
 34 35  2  0
 35 36  1  0
 36 37  1  0
 37 38  2  0
 38 39  1  0
 39 40  2  0
 40 41  1  0
 40 42  1  0
 42 43  2  0
 43 44  1  0
 35 45  1  0
 45 46  2  0
 45 47  1  0
 47 48  1  0
 47 49  1  0
 49 50  2  0
 28 24  1  0
 50 30  1  0
 49 33  1  0
 43 37  1  0
M  END

