
     RDKit          3D

 55 58  0  0  0  0  0  0  0  0999 V2000
   -3.4604   -3.2279    1.1254 C   0  0  0  0  0  0  0  0  0  0  0  0
   -4.5431   -2.0260    1.4659 C   0  0  2  0  0  0  0  0  0  0  0  0
   -4.1240   -1.1258    0.1551 C   0  0  0  0  0  0  0  0  0  0  0  0
   -4.9546    0.0447    0.2019 N   0  0  0  0  0  0  0  0  0  0  0  0
   -6.1462    0.2233   -0.3362 N   0  0  0  0  0  0  0  0  0  0  0  0
   -6.5350    1.4627   -0.0353 C   0  0  0  0  0  0  0  0  0  0  0  0
   -5.5759    2.0656    0.6989 N   0  0  0  0  0  0  0  0  0  0  0  0
   -4.6220    1.1635    0.8235 N   0  0  0  0  0  0  0  0  0  0  0  0
   -3.5828   -1.2863    2.4574 N   0  0  0  0  0  0  0  0  0  0  0  0
   -2.2992   -0.9286    1.9579 C   0  0  0  0  0  0  0  0  0  0  0  0
   -1.3978   -0.2853    2.7327 N   0  0  0  0  0  0  0  0  0  0  0  0
   -0.1735    0.0570    2.2701 C   0  0  0  0  0  0  0  0  0  0  0  0
    0.1984   -0.2413    0.9829 C   0  0  0  0  0  0  0  0  0  0  0  0
    1.4452    0.0832    0.4432 C   0  0  0  0  0  0  0  0  0  0  0  0
    1.7727   -0.2369   -0.8539 C   0  0  0  0  0  0  0  0  0  0  0  0
    2.9787    0.0782   -1.3722 O   0  0  0  0  0  0  0  0  0  0  0  0
    4.0281    0.7196   -0.7767 C   0  0  0  0  0  0  0  0  0  0  0  0
    4.0139    1.1715    0.5285 C   0  0  0  0  0  0  0  0  0  0  0  0
    5.0948    1.8153    1.0941 C   0  0  0  0  0  0  0  0  0  0  0  0
    6.2508    2.0401    0.3768 C   0  0  0  0  0  0  0  0  0  0  0  0
    7.3163    2.6765    0.9394 F   0  0  0  0  0  0  0  0  0  0  0  0
    6.2818    1.5954   -0.9274 C   0  0  0  0  0  0  0  0  0  0  0  0
    5.1804    0.9421   -1.4962 C   0  0  0  0  0  0  0  0  0  0  0  0
    5.2024    0.5036   -2.7720 F   0  0  0  0  0  0  0  0  0  0  0  0
    0.8439   -0.8905   -1.6259 C   0  0  0  0  0  0  0  0  0  0  0  0
    1.0885   -1.2164   -2.8422 O   0  0  0  0  0  0  0  0  0  0  0  0
   -0.3507   -1.1921   -1.0822 N   0  0  0  0  0  0  0  0  0  0  0  0
   -1.3161   -1.8823   -1.9156 C   0  0  0  0  0  0  0  0  0  0  0  0
   -0.7075   -0.8954    0.1827 C   0  0  0  0  0  0  0  0  0  0  0  0
   -1.9072   -1.2074    0.7024 N   0  0  0  0  0  0  0  0  0  0  0  0
   -6.6313    2.7204   -0.3577 N   0  0  0  0  0  4  0  0  0  0  0  0
   -6.2057    1.7028    0.5814 C   0  0  0  0  0  0  0  0  0  0  0  0
   -4.7180    1.4504    0.5393 C   0  0  0  0  0  0  0  0  0  0  0  0
   -4.2783    0.9816   -0.8435 C   0  0  0  0  0  0  0  0  0  0  0  0
   -2.7834    0.7563   -0.8337 C   0  0  0  0  0  0  0  0  0  0  0  0
   -2.5037   -0.3029    0.2142 C   0  0  0  0  0  0  0  0  0  0  0  0
   -1.0576   -0.6023    0.3147 C   0  0  0  0  0  0  0  0  0  0  0  0
   -0.2684    0.0220   -0.4354 O   0  0  0  0  0  0  0  0  0  0  0  0
   -0.5943   -1.5403    1.2095 N   0  0  0  0  0  0  0  0  0  0  0  0
    0.9681   -1.8007    1.2667 C   0  0  1  0  0  0  0  0  0  0  0  0
    1.1607   -1.9266   -0.3663 C   0  0  0  0  0  0  0  0  0  0  0  0
    0.2877   -3.0796   -0.7006 C   0  0  0  0  0  0  0  0  0  0  0  0
   -1.0404   -3.1110   -1.0543 C   0  0  0  0  0  0  0  0  0  0  0  0
   -1.3318   -4.3937   -1.2479 N   0  0  0  0  0  0  0  0  0  0  0  0
   -0.2686   -5.1519   -1.0363 C   0  0  0  0  0  0  0  0  0  0  0  0
    0.7528   -4.3612   -0.6945 N   0  0  0  0  0  0  0  0  0  0  0  0
    1.4030   -0.2704    1.3513 C   0  0  0  0  0  0  0  0  0  0  0  0
    0.6690    0.5238    1.9393 O   0  0  0  0  0  0  0  0  0  0  0  0
    2.6070    0.1090    0.7474 N   0  0  0  0  0  0  0  0  0  0  0  0
    3.1096    1.4830    0.7548 C   0  0  0  0  0  0  0  0  0  0  0  0
    4.4226    1.4924   -0.0236 C   0  0  0  0  0  0  0  0  0  0  0  0
    5.0080    2.8909   -0.0639 C   0  0  0  0  0  0  0  0  0  0  0  0
    4.0529    3.8421   -0.7153 C   0  0  0  0  0  0  0  0  0  0  0  0
    4.2560    4.4038   -1.9627 O   0  0  0  0  0  1  0  0  0  0  0  0
    2.9842    4.1621   -0.0966 O   0  0  0  0  0  0  0  0  0  0  0  0
  2  1  1  6
  2  3  1  0
  3  4  1  0
  4  5  1  0
  5  6  2  0
  6  7  1  0
  7  8  2  0
  2  9  1  0
  9 10  1  0
 10 11  2  0
 11 12  1  0
 12 13  2  0
 13 14  1  0
 14 15  2  0
 15 16  1  0
 16 17  1  0
 17 18  2  0
 18 19  1  0
 19 20  2  0
 20 21  1  0
 20 22  1  0
 22 23  2  0
 23 24  1  0
 15 25  1  0
 25 26  2  0
 25 27  1  0
 27 28  1  0
 27 29  1  0
 29 30  2  0
 31 32  1  0
 32 33  1  0
 33 34  1  0
 34 35  1  0
 35 36  1  0
 36 37  1  0
 37 38  2  0
 37 39  1  0
 39 40  1  0
 40 41  1  6
 41 42  1  0
 42 43  2  0
 43 44  1  0
 44 45  1  0
 45 46  2  0
 40 47  1  0
 47 48  2  0
 47 49  1  0
 49 50  1  0
 50 51  1  0
 51 52  1  0
 52 53  1  0
 53 54  1  0
 53 55  2  0
  8  4  1  0
 30 10  1  0
 46 42  1  0
 29 13  1  0
 23 17  1  0
M  CHG  1  31   1
M  RAD  1  54   2
M  END

