
     RDKit          3D

 27 27  0  0  0  0  0  0  0  0999 V2000
    1.6515   -1.0076   -3.3956 C   0  0  0  0  0  0  0  0  0  0  0  0
    0.0671   -0.7557   -3.0409 C   0  0  1  0  0  0  0  0  0  0  0  0
   -0.2087   -2.1867   -2.6309 O   0  0  0  0  0  0  0  0  0  0  0  0
    0.3185   -0.1273   -1.4457 C   0  0  2  0  0  0  0  0  0  0  0  0
    1.4980   -1.0915   -1.0378 N   0  0  0  0  0  0  0  0  0  0  0  0
    2.5492   -0.4498   -0.3586 C   0  0  0  0  0  0  0  0  0  0  0  0
    2.4882    0.7635   -0.1339 O   0  0  0  0  0  0  0  0  0  0  0  0
    3.7436   -1.1902    0.1068 C   0  0  0  0  0  0  0  0  0  0  0  0
    4.5916   -0.2739    1.0075 C   0  0  0  0  0  0  0  0  0  0  0  0
    4.9660    0.9427    0.1387 C   0  0  0  0  0  0  0  0  0  0  0  0
    5.7508    1.9330    0.9464 C   0  0  0  0  0  0  0  0  0  0  0  0
    6.9618    1.4135    1.4771 N   0  0  0  0  0  0  0  0  0  0  0  0
    8.0340    0.9442    0.6723 C   0  0  0  0  0  0  0  0  0  0  0  0
    9.2353    0.4320    1.2356 N   0  0  0  0  0  0  0  0  0  0  0  0
    7.8956    0.9975   -0.6306 N   0  0  0  0  0  4  0  0  0  0  0  0
   -0.8221   -0.9128   -0.6911 C   0  0  0  0  0  0  0  0  0  0  0  0
   -0.7984   -2.0097   -0.2535 O   0  0  0  0  0  0  0  0  0  0  0  0
   -1.9696   -0.1043   -0.5789 N   0  0  0  0  0  0  0  0  0  0  0  0
   -3.2203   -0.4468    0.0370 C   0  0  0  0  0  0  0  0  0  0  0  0
   -4.0548    0.8366   -0.0609 C   0  0  0  0  0  0  0  0  0  0  0  0
   -5.3673    0.6050    0.5293 C   0  0  0  0  0  0  0  0  0  0  0  0
   -6.4200    0.2628   -0.3217 C   0  0  0  0  0  0  0  0  0  0  0  0
   -7.6569    0.0529    0.2812 C   0  0  0  0  0  0  0  0  0  0  0  0
   -7.8342    0.1707    1.6109 C   0  0  0  0  0  0  0  0  0  0  0  0
   -9.0734   -0.0350    2.2479 O   0  0  0  0  0  0  0  0  0  0  0  0
   -6.7800    0.5124    2.4559 C   0  0  0  0  0  0  0  0  0  0  0  0
   -5.5452    0.7244    1.8692 C   0  0  0  0  0  0  0  0  0  0  0  0
  2  1  1  6
  2  3  1  0
  2  4  1  0
  4  5  1  1
  5  6  1  0
  6  7  2  0
  6  8  1  0
  8  9  1  0
  9 10  1  0
 10 11  1  0
 11 12  1  0
 12 13  1  0
 13 14  1  0
 13 15  2  0
  4 16  1  0
 16 17  2  0
 16 18  1  0
 18 19  1  0
 19 20  1  0
 20 21  1  0
 21 22  2  0
 22 23  1  0
 23 24  2  0
 24 25  1  0
 24 26  1  0
 26 27  2  0
 27 21  1  0
M  CHG  1  15   1
M  END

