
     RDKit          3D

 26 27  0  0  0  0  0  0  0  0999 V2000
    8.3814   -1.9463    0.7549 N   0  0  0  0  0  0  0  0  0  0  0  0
    7.4943   -0.8290    0.7252 C   0  0  0  0  0  0  0  0  0  0  0  0
    7.1479   -0.3180    1.8564 N   0  0  0  0  0  4  0  0  0  0  0  0
    6.9894   -0.2699   -0.4693 N   0  0  0  0  0  0  0  0  0  0  0  0
    6.0843    0.8712   -0.4825 C   0  0  0  0  0  0  0  0  0  0  0  0
    4.8211    0.4876    0.2902 C   0  0  0  0  0  0  0  0  0  0  0  0
    3.9340    1.7373    0.2245 C   0  0  0  0  0  0  0  0  0  0  0  0
    2.6985    1.4023    0.9642 C   0  0  0  0  0  0  0  0  0  0  0  0
    1.9599    0.2316    0.3769 C   0  0  0  0  0  0  0  0  0  0  0  0
    2.5105   -0.2814   -0.6559 O   0  0  0  0  0  0  0  0  0  0  0  0
    0.7686   -0.2386    0.9344 N   0  0  0  0  0  0  0  0  0  0  0  0
    0.0613    0.2192    2.0474 C   0  0  0  0  0  0  0  0  0  0  0  0
   -0.6876   -0.9747    2.5498 C   0  0  0  0  0  0  0  0  0  0  0  0
   -0.2519   -2.1686    1.7550 C   0  0  0  0  0  0  0  0  0  0  0  0
    0.0459   -1.4334    0.3074 C   0  0  1  0  0  0  0  0  0  0  0  0
   -1.4152   -0.8355    0.1720 C   0  0  0  0  0  0  0  0  0  0  0  0
   -1.6470    0.3082    0.5444 O   0  0  0  0  0  0  0  0  0  0  0  0
   -2.3949   -1.6904   -0.3904 N   0  0  0  0  0  0  0  0  0  0  0  0
   -3.7436   -1.1701   -0.5272 C   0  0  0  0  0  0  0  0  0  0  0  0
   -3.7690    0.0617   -1.4155 C   0  0  0  0  0  0  0  0  0  0  0  0
   -5.1705    0.5302   -1.5054 C   0  0  0  0  0  0  0  0  0  0  0  0
   -5.6844    1.4414   -0.6065 C   0  0  0  0  0  0  0  0  0  0  0  0
   -6.9905    1.8804   -0.6871 C   0  0  0  0  0  0  0  0  0  0  0  0
   -7.8354    1.4175   -1.6805 C   0  0  0  0  0  0  0  0  0  0  0  0
   -7.3066    0.5019   -2.5777 C   0  0  0  0  0  0  0  0  0  0  0  0
   -6.0004    0.0568   -2.5047 C   0  0  0  0  0  0  0  0  0  0  0  0
  1  2  1  0
  2  3  2  0
  2  4  1  0
  4  5  1  0
  5  6  1  0
  6  7  1  0
  7  8  1  0
  8  9  1  0
  9 10  2  0
  9 11  1  0
 11 12  1  0
 12 13  1  0
 13 14  1  0
 14 15  1  0
 15 16  1  1
 16 17  2  0
 16 18  1  0
 18 19  1  0
 19 20  1  0
 20 21  1  0
 21 22  2  0
 22 23  1  0
 23 24  2  0
 24 25  1  0
 25 26  2  0
 15 11  1  0
 26 21  1  0
M  CHG  1   3   1
M  END

