
     RDKit          3D

 54 58  0  0  0  0  0  0  0  0999 V2000
   -5.9453    1.9398    2.3918 C   0  0  0  0  0  0  0  0  0  0  0  0
   -6.4965    1.1561    1.2105 C   0  0  0  0  0  0  0  0  0  0  0  0
   -6.4736    2.0860    0.0263 C   0  0  0  0  0  0  0  0  0  0  0  0
   -5.6647   -0.0650    0.9050 C   0  0  0  0  0  0  0  0  0  0  0  0
   -4.3197    0.4196    0.5881 N   0  0  0  0  0  0  0  0  0  0  0  0
   -3.3722   -0.5562    0.3073 C   0  0  0  0  0  0  0  0  0  0  0  0
   -3.6272   -1.7095    0.3278 O   0  0  0  0  0  0  0  0  0  0  0  0
   -1.9664    0.0913   -0.0250 C   0  0  2  0  0  0  0  0  0  0  0  0
   -2.2433    0.1666   -1.6678 C   0  0  0  0  0  0  0  0  0  0  0  0
   -0.9509    0.2054   -2.2073 O   0  0  0  0  0  0  0  0  0  0  0  0
   -1.1585   -1.2751   -0.1502 N   0  0  0  0  0  0  0  0  0  0  0  0
    0.1036   -1.1610    0.5786 C   0  0  0  0  0  0  0  0  0  0  0  0
    0.3782   -0.0803    1.1581 O   0  0  0  0  0  0  0  0  0  0  0  0
    1.0435   -2.2625    0.6490 C   0  0  0  0  0  0  0  0  0  0  0  0
    2.3919   -2.1028    1.0936 C   0  0  0  0  0  0  0  0  0  0  0  0
    3.3958   -1.3408    0.4301 C   0  0  0  0  0  0  0  0  0  0  0  0
    4.3716   -1.9882   -0.3788 C   0  0  0  0  0  0  0  0  0  0  0  0
    5.1835   -1.0795   -0.8923 N   0  0  0  0  0  0  0  0  0  0  0  0
    4.8084    0.1516   -0.4732 C   0  0  0  0  0  0  0  0  0  0  0  0
    5.3054    1.4187   -0.7060 C   0  0  0  0  0  0  0  0  0  0  0  0
    4.7426    2.5407   -0.1545 C   0  0  0  0  0  0  0  0  0  0  0  0
    3.6277    2.3711    0.6707 C   0  0  0  0  0  0  0  0  0  0  0  0
    3.1755    1.1101    0.8702 C   0  0  0  0  0  0  0  0  0  0  0  0
    3.6904   -0.0364    0.3505 C   0  0  0  0  0  0  0  0  0  0  0  0
    5.4434   -1.5387   -2.8116 C   0  0  0  0  0  0  0  0  0  0  0  0
    3.8113   -1.2477   -2.8881 C   0  0  2  0  0  0  0  0  0  0  0  0
    3.9983    0.3809   -3.0845 C   0  0  0  0  0  0  0  0  0  0  0  0
    4.6923    0.8915   -1.9656 N   0  0  0  0  0  0  0  0  0  0  0  0
    4.1219    1.3345   -0.8588 N   0  0  0  0  0  0  0  0  0  0  0  0
    5.0464    1.7458   -0.0000 C   0  0  0  0  0  0  0  0  0  0  0  0
    6.2386    1.5561   -0.5840 N   0  0  0  0  0  0  0  0  0  0  0  0
    5.9838    1.0381   -1.7713 N   0  0  0  0  0  0  0  0  0  0  0  0
    3.6452   -1.1775   -1.3188 N   0  0  0  0  0  0  0  0  0  0  0  0
    2.2843   -0.9229   -0.9213 C   0  0  0  0  0  0  0  0  0  0  0  0
    1.2834   -0.7658   -1.8032 N   0  0  0  0  0  0  0  0  0  0  0  0
    0.0147   -0.5283   -1.4238 C   0  0  0  0  0  0  0  0  0  0  0  0
   -0.3012   -0.4371   -0.0838 C   0  0  0  0  0  0  0  0  0  0  0  0
   -1.5998   -0.1929    0.3422 C   0  0  0  0  0  0  0  0  0  0  0  0
   -1.8187   -0.1185    1.7088 C   0  0  0  0  0  0  0  0  0  0  0  0
   -3.0986    0.1240    2.2014 O   0  0  0  0  0  0  0  0  0  0  0  0
   -4.1654    0.2940    1.3639 C   0  0  0  0  0  0  0  0  0  0  0  0
   -4.8771    1.4581    1.3799 C   0  0  0  0  0  0  0  0  0  0  0  0
   -5.9668    1.6844    0.5533 C   0  0  0  0  0  0  0  0  0  0  0  0
   -6.3150    0.6664   -0.3072 C   0  0  0  0  0  0  0  0  0  0  0  0
   -7.3943    0.9032   -1.1191 F   0  0  0  0  0  0  0  0  0  0  0  0
   -5.6308   -0.5116   -0.3549 C   0  0  0  0  0  0  0  0  0  0  0  0
   -4.5353   -0.6954    0.5000 C   0  0  0  0  0  0  0  0  0  0  0  0
   -3.8837   -1.8897    0.4151 F   0  0  0  0  0  0  0  0  0  0  0  0
   -0.7716   -0.2839    2.5865 C   0  0  0  0  0  0  0  0  0  0  0  0
   -0.9644   -0.2176    3.8163 O   0  0  0  0  0  0  0  0  0  0  0  0
    0.4798   -0.5197    2.1536 N   0  0  0  0  0  0  0  0  0  0  0  0
    1.5920   -0.6961    3.0624 C   0  0  0  0  0  0  0  0  0  0  0  0
    0.7199   -0.5969    0.8299 C   0  0  0  0  0  0  0  0  0  0  0  0
    1.9674   -0.8324    0.3827 N   0  0  0  0  0  0  0  0  0  0  0  0
  1  2  1  0
  2  3  1  0
  2  4  1  0
  4  5  1  0
  5  6  1  0
  6  7  2  0
  6  8  1  0
  8  9  1  6
  9 10  1  0
  8 11  1  0
 11 12  1  0
 12 13  2  0
 12 14  1  0
 14 15  1  0
 15 16  1  0
 16 17  2  0
 17 18  1  0
 18 19  1  0
 19 20  2  0
 20 21  1  0
 21 22  2  0
 22 23  1  0
 23 24  2  0
 26 25  1  1
 26 27  1  0
 27 28  1  0
 28 29  1  0
 29 30  2  0
 30 31  1  0
 31 32  2  0
 26 33  1  0
 33 34  1  0
 34 35  2  0
 35 36  1  0
 36 37  2  0
 37 38  1  0
 38 39  2  0
 39 40  1  0
 40 41  1  0
 41 42  2  0
 42 43  1  0
 43 44  2  0
 44 45  1  0
 44 46  1  0
 46 47  2  0
 47 48  1  0
 39 49  1  0
 49 50  2  0
 49 51  1  0
 51 52  1  0
 51 53  1  0
 53 54  2  0
 24 16  1  0
 32 28  1  0
 54 34  1  0
 24 19  1  0
 53 37  1  0
 47 41  1  0
M  END

