
     RDKit          3D

 22 21  0  0  0  0  0  0  0  0999 V2000
   -3.9981   -1.8400    0.6043 C   0  0  0  0  0  0  0  0  0  0  0  0
   -5.2039   -1.0408    0.8971 C   0  0  0  0  0  0  0  0  0  0  0  0
   -6.4063   -1.9913    0.9892 C   0  0  0  0  0  0  0  0  0  0  0  0
   -5.4976    0.1299    0.1626 C   0  0  0  0  0  0  0  0  0  0  0  0
   -4.7496    1.2975    0.0779 C   0  0  0  0  0  0  0  0  0  0  0  0
   -3.4838    1.4487   -0.3370 N   0  0  0  0  0  0  0  0  0  0  0  0
   -2.2618    1.0502    0.1253 C   0  0  0  0  0  0  0  0  0  0  0  0
   -2.0766    0.4263    1.1216 O   0  0  0  0  0  0  0  0  0  0  0  0
   -1.0831    1.5312   -0.8518 C   0  0  2  0  0  0  0  0  0  0  0  0
   -1.2763    0.3107   -1.9364 C   0  0  0  0  0  0  0  0  0  0  0  0
   -1.5330   -0.8371   -1.2450 O   0  0  0  0  0  0  0  0  0  0  0  0
    0.1218    0.9131   -0.0818 N   0  0  0  0  0  0  0  0  0  0  0  0
    1.0302    0.1491   -0.8233 C   0  0  0  0  0  0  0  0  0  0  0  0
    0.8549   -0.0252   -2.0868 O   0  0  0  0  0  0  0  0  0  0  0  0
    2.2405   -0.4983   -0.1845 C   0  0  0  0  0  0  0  0  0  0  0  0
    2.9464   -1.3221   -1.2149 C   0  0  0  0  0  0  0  0  0  0  0  0
    4.1653   -2.0174   -0.7145 C   0  0  0  0  0  0  0  0  0  0  0  0
    5.1421   -0.9720   -0.2381 C   0  0  0  0  0  0  0  0  0  0  0  0
    4.5059   -0.2177    0.8252 N   0  0  0  0  0  0  0  0  0  0  0  0
    5.2811    0.8291    1.4098 C   0  0  0  0  0  0  0  0  0  0  0  0
    4.7921    1.6526    2.4548 N   0  0  0  0  0  0  0  0  0  0  0  0
    6.4900    1.0234    0.9471 N   0  0  0  0  0  4  0  0  0  0  0  0
  1  2  1  0
  2  3  1  0
  2  4  1  0
  4  5  1  0
  5  6  1  0
  6  7  1  0
  7  8  2  0
  7  9  1  0
  9 10  1  6
 10 11  1  0
  9 12  1  0
 12 13  1  0
 13 14  2  0
 13 15  1  0
 15 16  1  0
 16 17  1  0
 17 18  1  0
 18 19  1  0
 19 20  1  0
 20 21  1  0
 20 22  2  0
M  CHG  1  22   1
M  END

