
     RDKit          3D

 56 59  0  0  0  0  0  0  0  0999 V2000
   -4.5885    1.6898   -1.0797 C   0  0  0  0  0  0  0  0  0  0  0  0
   -5.0202    0.1991   -1.6434 C   0  0  2  0  0  0  0  0  0  0  0  0
   -4.8237   -0.5178   -0.1758 C   0  0  0  0  0  0  0  0  0  0  0  0
   -5.7769    0.2230    0.6288 N   0  0  0  0  0  0  0  0  0  0  0  0
   -7.0511   -0.0722    0.8283 N   0  0  0  0  0  0  0  0  0  0  0  0
   -7.5387    0.8879    1.6361 C   0  0  0  0  0  0  0  0  0  0  0  0
   -6.5451    1.7531    1.9133 N   0  0  0  0  0  0  0  0  0  0  0  0
   -5.4584    1.3270    1.2812 N   0  0  0  0  0  0  0  0  0  0  0  0
   -3.6161   -0.2335   -2.1737 N   0  0  0  0  0  0  0  0  0  0  0  0
   -2.5146   -0.2893   -1.3789 C   0  0  0  0  0  0  0  0  0  0  0  0
   -2.5931    0.0332   -0.0797 N   0  0  0  0  0  0  0  0  0  0  0  0
   -1.5276   -0.0079    0.7444 C   0  0  0  0  0  0  0  0  0  0  0  0
   -0.2953   -0.4000    0.2306 C   0  0  0  0  0  0  0  0  0  0  0  0
    0.8285   -0.4604    1.0268 C   0  0  0  0  0  0  0  0  0  0  0  0
    2.0335   -0.8632    0.4415 C   0  0  0  0  0  0  0  0  0  0  0  0
    3.1986   -0.9438    1.1908 O   0  0  0  0  0  0  0  0  0  0  0  0
    4.3074   -0.2015    0.8847 C   0  0  0  0  0  0  0  0  0  0  0  0
    4.2833    0.6514   -0.1893 C   0  0  0  0  0  0  0  0  0  0  0  0
    5.3840    1.4265   -0.5408 C   0  0  0  0  0  0  0  0  0  0  0  0
    6.5226    1.3176    0.2282 C   0  0  0  0  0  0  0  0  0  0  0  0
    7.5770    2.0971   -0.1546 F   0  0  0  0  0  0  0  0  0  0  0  0
    6.5738    0.4786    1.2999 C   0  0  0  0  0  0  0  0  0  0  0  0
    5.4562   -0.2848    1.6274 C   0  0  0  0  0  0  0  0  0  0  0  0
    5.5588   -1.1067    2.7066 F   0  0  0  0  0  0  0  0  0  0  0  0
    2.0431   -1.1789   -0.8932 C   0  0  0  0  0  0  0  0  0  0  0  0
    3.1341   -1.5411   -1.4124 O   0  0  0  0  0  0  0  0  0  0  0  0
    0.9264   -1.1160   -1.6723 N   0  0  0  0  0  0  0  0  0  0  0  0
    1.0637   -1.4721   -3.0598 C   0  0  0  0  0  0  0  0  0  0  0  0
   -0.2193   -0.7297   -1.1019 C   0  0  0  0  0  0  0  0  0  0  0  0
   -1.3223   -0.6652   -1.8614 N   0  0  0  0  0  0  0  0  0  0  0  0
   -6.7114    2.3466   -1.3810 N   0  0  0  0  0  0  0  0  0  0  0  0
   -6.3465    1.2385   -0.5403 C   0  0  0  0  0  0  0  0  0  0  0  0
   -6.3954    1.3815    0.6970 O   0  0  0  0  0  0  0  0  0  0  0  0
   -5.9203   -0.0516   -1.1035 C   0  0  0  0  0  0  0  0  0  0  0  0
   -5.6137   -1.0096   -0.0055 C   0  0  0  0  0  0  0  0  0  0  0  0
   -4.5138   -0.4775    0.8554 C   0  0  0  0  0  0  0  0  0  0  0  0
   -3.3580   -0.2712    0.0256 N   0  0  0  0  0  0  0  0  0  0  0  0
   -2.1791    0.1784    0.5690 C   0  0  0  0  0  0  0  0  0  0  0  0
   -2.0709    0.4175    1.7884 O   0  0  0  0  0  0  0  0  0  0  0  0
   -0.8916    0.4122   -0.3413 C   0  0  2  0  0  0  0  0  0  0  0  0
   -0.4896   -1.1315   -0.6130 C   0  0  0  0  0  0  0  0  0  0  0  0
   -0.1931   -1.8747    0.5479 C   0  0  0  0  0  0  0  0  0  0  0  0
    0.1085   -3.2207    0.4691 O   0  0  0  0  0  1  0  0  0  0  0  0
   -0.1827   -1.3676    1.7142 O   0  0  0  0  0  0  0  0  0  0  0  0
    0.1675    0.6805    0.7653 N   0  0  0  0  0  0  0  0  0  0  0  0
    1.4425    1.1591    0.3601 C   0  0  0  0  0  0  0  0  0  0  0  0
    1.6205    1.3378   -0.8416 O   0  0  0  0  0  0  0  0  0  0  0  0
    2.4169    1.3858    1.4453 C   0  0  0  0  0  0  0  0  0  0  0  0
    3.7140    1.8363    0.8549 C   0  0  0  0  0  0  0  0  0  0  0  0
    4.3085    0.8692   -0.0932 C   0  0  0  0  0  0  0  0  0  0  0  0
    4.1893    0.8992   -1.4590 C   0  0  0  0  0  0  0  0  0  0  0  0
    4.7709   -0.1072   -2.2470 C   0  0  0  0  0  0  0  0  0  0  0  0
    5.4634   -1.1293   -1.6627 C   0  0  0  0  0  0  0  0  0  0  0  0
    6.0491   -2.1432   -2.4245 O   0  0  0  0  0  0  0  0  0  0  0  0
    5.5939   -1.1753   -0.2948 C   0  0  0  0  0  0  0  0  0  0  0  0
    5.0210   -0.1831    0.4903 C   0  0  0  0  0  0  0  0  0  0  0  0
  2  1  1  1
  2  3  1  0
  3  4  1  0
  4  5  1  0
  5  6  2  0
  6  7  1  0
  7  8  2  0
  2  9  1  0
  9 10  1  0
 10 11  2  0
 11 12  1  0
 12 13  2  0
 13 14  1  0
 14 15  2  0
 15 16  1  0
 16 17  1  0
 17 18  2  0
 18 19  1  0
 19 20  2  0
 20 21  1  0
 20 22  1  0
 22 23  2  0
 23 24  1  0
 15 25  1  0
 25 26  2  0
 25 27  1  0
 27 28  1  0
 27 29  1  0
 29 30  2  0
 31 32  1  0
 32 33  2  0
 32 34  1  0
 34 35  1  0
 35 36  1  0
 36 37  1  0
 37 38  1  0
 38 39  2  0
 38 40  1  0
 40 41  1  1
 41 42  1  0
 42 43  1  0
 42 44  2  0
 40 45  1  0
 45 46  1  0
 46 47  2  0
 46 48  1  0
 48 49  1  0
 49 50  1  0
 50 51  2  0
 51 52  1  0
 52 53  2  0
 53 54  1  0
 53 55  1  0
 55 56  2  0
  8  4  1  0
 30 10  1  0
 56 50  1  0
 29 13  1  0
 23 17  1  0
M  RAD  1  43   2
M  END

