
     RDKit          3D

 23 23  0  0  0  0  0  0  0  0999 V2000
    5.7245   -2.0102   -2.3190 C   0  0  0  0  0  0  0  0  0  0  0  0
    4.4545   -2.4729   -1.6221 C   0  0  0  0  0  0  0  0  0  0  0  0
    3.6362   -1.0671   -1.3305 C   0  0  2  0  0  0  0  0  0  0  0  0
    4.8707   -0.4556   -0.3968 C   0  0  0  0  0  0  0  0  0  0  0  0
    2.8683   -1.7079    0.0016 C   0  0  0  0  0  0  0  0  0  0  0  0
    2.0151   -0.6346    0.5248 C   0  0  0  0  0  0  0  0  0  0  0  0
    1.9845    0.4528   -0.0708 O   0  0  0  0  0  0  0  0  0  0  0  0
    1.2684   -0.8291    1.6494 N   0  0  0  0  0  0  0  0  0  0  0  0
    0.3614    0.3110    2.2108 C   0  0  2  0  0  0  0  0  0  0  0  0
   -0.7021    0.3766    1.0502 C   0  0  0  0  0  0  0  0  0  0  0  0
   -0.5285   -0.4431    0.1628 O   0  0  0  0  0  0  0  0  0  0  0  0
   -1.7457    1.2703    1.0174 N   0  0  0  0  0  0  0  0  0  0  0  0
   -2.6640    1.2271   -0.1017 C   0  0  0  0  0  0  0  0  0  0  0  0
   -3.3558   -0.1209   -0.1515 C   0  0  0  0  0  0  0  0  0  0  0  0
   -4.3105   -0.2022   -1.2878 C   0  0  0  0  0  0  0  0  0  0  0  0
   -4.5712    0.7411   -2.2613 C   0  0  0  0  0  0  0  0  0  0  0  0
   -5.5160    0.2472   -3.0766 N   0  0  0  0  0  0  0  0  0  0  0  0
   -5.8379   -0.9681   -2.6276 C   0  0  0  0  0  0  0  0  0  0  0  0
   -5.1000   -1.2290   -1.5420 N   0  0  0  0  0  0  0  0  0  0  0  0
    1.3551    1.6331    1.7169 C   0  0  1  0  0  0  0  0  0  0  0  0
    0.3024    2.7210    2.3561 C   0  0  0  0  0  0  0  0  0  0  0  0
    2.2311    1.5710    3.1031 C   0  0  0  0  0  0  0  0  0  0  0  0
    3.2595    2.6660    2.9945 C   0  0  0  0  0  0  0  0  0  0  0  0
  1  2  1  0
  2  3  1  0
  3  4  1  1
  3  5  1  0
  5  6  1  0
  6  7  2  0
  6  8  1  0
  9  8  1  6
  9 10  1  0
 10 11  2  0
 10 12  1  0
 12 13  1  0
 13 14  1  0
 14 15  1  0
 15 16  2  0
 16 17  1  0
 17 18  1  0
 18 19  2  0
  9 20  1  0
 20 21  1  1
 20 22  1  0
 22 23  1  0
 19 15  1  0
M  END

