
     RDKit          3D

 22 23  0  0  0  0  0  0  0  0999 V2000
   -2.2157   -0.9792   -2.8283 C   0  0  0  0  0  0  0  0  0  0  0  0
   -1.6843    0.3513   -2.4783 C   0  0  0  0  0  0  0  0  0  0  0  0
   -0.2945    0.5846   -3.0278 C   0  0  0  0  0  0  0  0  0  0  0  0
   -1.3144    0.2969   -0.8523 C   0  0  2  0  0  0  0  0  0  0  0  0
   -0.2831   -0.8690   -1.0041 N   0  0  0  0  0  0  0  0  0  0  0  0
    1.0881   -0.5171   -0.9576 C   0  0  0  0  0  0  0  0  0  0  0  0
    1.3357    0.7076   -0.8013 O   0  0  0  0  0  0  0  0  0  0  0  0
    2.2031   -1.4705   -1.0771 C   0  0  0  0  0  0  0  0  0  0  0  0
    3.5612   -0.9237   -1.0055 C   0  0  0  0  0  0  0  0  0  0  0  0
    3.9587   -0.2195    0.2125 C   0  0  0  0  0  0  0  0  0  0  0  0
    3.7874    1.1574    0.2760 C   0  0  0  0  0  0  0  0  0  0  0  0
    4.1359    1.8772    1.3816 C   0  0  0  0  0  0  0  0  0  0  0  0
    4.6768    1.2236    2.4771 C   0  0  0  0  0  0  0  0  0  0  0  0
    4.8554   -0.1406    2.4367 C   0  0  0  0  0  0  0  0  0  0  0  0
    4.5077   -0.8575    1.3340 C   0  0  0  0  0  0  0  0  0  0  0  0
   -2.5548   -0.5425   -0.3789 C   0  0  0  0  0  0  0  0  0  0  0  0
   -2.3345   -1.7405   -0.3124 O   0  0  0  0  0  0  0  0  0  0  0  0
   -3.7739   -0.0237   -0.0634 N   0  0  0  0  0  0  0  0  0  0  0  0
   -4.2043    1.3640   -0.0852 C   0  0  0  0  0  0  0  0  0  0  0  0
   -5.1390    1.4546    1.1070 C   0  0  0  0  0  0  0  0  0  0  0  0
   -5.3834    0.0433    1.5623 C   0  0  0  0  0  0  0  0  0  0  0  0
   -4.9279   -0.7767    0.3734 C   0  0  0  0  0  0  0  0  0  0  0  0
  1  2  1  0
  2  3  1  0
  2  4  1  0
  4  5  1  6
  5  6  1  0
  6  7  2  0
  6  8  1  0
  8  9  1  0
  9 10  1  0
 10 11  2  0
 11 12  1  0
 12 13  2  0
 13 14  1  0
 14 15  2  0
  4 16  1  0
 16 17  2  0
 16 18  1  0
 18 19  1  0
 19 20  1  0
 20 21  1  0
 21 22  1  0
 15 10  1  0
 22 18  1  0
M  END

