
     RDKit          3D

 23 22  0  0  0  0  0  0  0  0999 V2000
   -5.7099   -2.7634   -0.3564 C   0  0  0  0  0  0  0  0  0  0  0  0
   -4.5489   -3.1078    0.4388 C   0  0  0  0  0  0  0  0  0  0  0  0
   -3.8428   -4.3797   -0.0256 C   0  0  0  0  0  0  0  0  0  0  0  0
   -3.5942   -2.0721    0.8821 C   0  0  0  0  0  0  0  0  0  0  0  0
   -3.1036   -1.3498   -0.4072 C   0  0  0  0  0  0  0  0  0  0  0  0
   -2.0559   -0.3799   -0.0091 C   0  0  0  0  0  0  0  0  0  0  0  0
   -1.5531   -0.3604    1.1498 O   0  0  0  0  0  0  0  0  0  0  0  0
   -1.5831    0.5604   -0.9272 N   0  0  0  0  0  0  0  0  0  0  0  0
   -0.4649    1.4883   -0.4411 C   0  0  1  0  0  0  0  0  0  0  0  0
   -0.4199    1.4849    1.0954 C   0  0  0  0  0  0  0  0  0  0  0  0
   -1.7289    2.1433    1.5469 C   0  0  0  0  0  0  0  0  0  0  0  0
   -1.6061    3.5648    0.9890 C   0  0  0  0  0  0  0  0  0  0  0  0
   -1.5202    3.5299   -0.5007 C   0  0  0  0  0  0  0  0  0  0  0  0
   -1.3903    4.9220   -0.9477 N   0  0  0  0  0  4  0  0  0  0  0  0
    0.7690    0.5212   -0.8436 C   0  0  0  0  0  0  0  0  0  0  0  0
    1.2863    0.6713   -1.9412 O   0  0  0  0  0  0  0  0  0  0  0  0
    1.0944   -0.4064    0.1355 N   0  0  0  0  0  0  0  0  0  0  0  0
    2.1623   -1.3502   -0.0731 C   0  0  0  0  0  0  0  0  0  0  0  0
    3.4613   -0.6072   -0.0395 C   0  0  0  0  0  0  0  0  0  0  0  0
    4.5563   -1.6354   -0.2774 C   0  0  0  0  0  0  0  0  0  0  0  0
    5.8605   -1.0678   -0.0975 C   0  0  0  0  0  0  0  0  0  0  0  0
    6.2824    0.1069   -0.8614 C   0  0  0  0  0  0  0  0  0  0  0  0
    7.6490    0.4871   -0.4882 N   0  0  0  0  0  4  0  0  0  0  0  0
  1  2  1  0
  2  3  1  0
  2  4  1  0
  4  5  1  0
  5  6  1  0
  6  7  2  0
  6  8  1  0
  8  9  1  0
  9 10  1  1
 10 11  1  0
 11 12  1  0
 12 13  1  0
 13 14  1  0
  9 15  1  0
 15 16  2  0
 15 17  1  0
 17 18  1  0
 18 19  1  0
 19 20  1  0
 20 21  1  0
 21 22  1  0
 22 23  1  0
M  CHG  2  14   1  23   1
M  END

