
     RDKit          3D

 22 21  0  0  0  0  0  0  0  0999 V2000
    6.0363   -1.0743    0.0802 C   0  0  0  0  0  0  0  0  0  0  0  0
    5.3022   -0.7881   -1.5512 S   0  0  0  0  0  0  0  0  0  0  0  0
    3.9781    0.4133   -1.4088 C   0  0  0  0  0  0  0  0  0  0  0  0
    2.8179   -0.0948   -0.6044 C   0  0  0  0  0  0  0  0  0  0  0  0
    3.1787   -0.4629    0.8158 C   0  0  0  0  0  0  0  0  0  0  0  0
    1.9323   -0.9366    1.4380 N   0  0  0  0  0  0  0  0  0  0  0  0
    0.7910   -0.1310    1.5467 C   0  0  0  0  0  0  0  0  0  0  0  0
    0.7671    1.0021    1.1333 O   0  0  0  0  0  0  0  0  0  0  0  0
   -0.4668   -0.8082    2.2478 C   0  0  2  0  0  0  0  0  0  0  0  0
   -0.9826   -1.5934    0.8837 C   0  0  0  0  0  0  0  0  0  0  0  0
    0.2481   -2.4452    0.6189 C   0  0  0  0  0  0  0  0  0  0  0  0
    0.0681   -3.2747   -0.5721 C   0  0  0  0  0  0  0  0  0  0  0  0
   -0.2481   -4.6372   -0.5413 O   0  0  0  0  0  1  0  0  0  0  0  0
    0.1996   -2.7581   -1.7085 O   0  0  0  0  0  0  0  0  0  0  0  0
   -1.4816    0.3892    2.1271 N   0  0  0  0  0  0  0  0  0  0  0  0
   -1.8547    0.8704    0.8907 C   0  0  0  0  0  0  0  0  0  0  0  0
   -1.4192    0.3899   -0.1656 O   0  0  0  0  0  0  0  0  0  0  0  0
   -2.8259    2.0184    0.8842 C   0  0  0  0  0  0  0  0  0  0  0  0
   -3.0779    2.3726   -0.5542 C   0  0  0  0  0  0  0  0  0  0  0  0
   -4.0289    3.5018   -0.6332 C   0  0  0  0  0  0  0  0  0  0  0  0
   -4.4409    4.0385   -1.8364 O   0  0  0  0  0  1  0  0  0  0  0  0
   -4.4927    4.0082    0.4203 O   0  0  0  0  0  0  0  0  0  0  0  0
  1  2  1  0
  2  3  1  0
  3  4  1  0
  4  5  1  0
  5  6  1  0
  6  7  1  0
  7  8  2  0
  7  9  1  0
  9 10  1  6
 10 11  1  0
 11 12  1  0
 12 13  1  0
 12 14  2  0
  9 15  1  0
 15 16  1  0
 16 17  2  0
 16 18  1  0
 18 19  1  0
 19 20  1  0
 20 21  1  0
 20 22  2  0
M  RAD  2  13   2  21   2
M  END

