
     RDKit          3D

 53 55  0  0  0  0  0  0  0  0999 V2000
   -5.9891    0.8658    0.1457 C   0  0  0  0  0  0  0  0  0  0  0  0
   -5.5453    0.5286   -1.2386 C   0  0  0  0  0  0  0  0  0  0  0  0
   -6.3128    1.2373   -2.3189 C   0  0  0  0  0  0  0  0  0  0  0  0
   -4.0926    0.7789   -1.3899 C   0  0  0  0  0  0  0  0  0  0  0  0
   -3.3365   -0.0311   -0.4551 N   0  0  0  0  0  0  0  0  0  0  0  0
   -1.9494    0.0737   -0.4552 C   0  0  0  0  0  0  0  0  0  0  0  0
   -1.2859    0.8269   -1.2199 O   0  0  0  0  0  0  0  0  0  0  0  0
   -1.0857   -0.8109    0.5870 C   0  0  2  0  0  0  0  0  0  0  0  0
   -1.7896   -0.1317    1.9250 C   0  0  0  0  0  0  0  0  0  0  0  0
   -3.2734   -0.4696    1.7784 C   0  0  0  0  0  0  0  0  0  0  0  0
   -3.4208   -1.9845    1.7382 C   0  0  0  0  0  0  0  0  0  0  0  0
   -3.9553    0.0481    3.0275 C   0  0  0  0  0  0  0  0  0  0  0  0
    0.1951    0.1286    0.6495 N   0  0  0  0  0  0  0  0  0  0  0  0
    1.4445   -0.5450    0.7014 C   0  0  0  0  0  0  0  0  0  0  0  0
    1.5075   -1.8201    0.6836 O   0  0  0  0  0  0  0  0  0  0  0  0
    2.7056    0.2280    0.7840 C   0  0  0  0  0  0  0  0  0  0  0  0
    3.8915   -0.7115    0.7949 C   0  0  0  0  0  0  0  0  0  0  0  0
    3.8921   -1.4621   -0.4972 C   0  0  0  0  0  0  0  0  0  0  0  0
    4.1110   -0.5497   -1.6432 C   0  0  0  0  0  0  0  0  0  0  0  0
    5.3534    0.0706   -1.6547 N   0  0  0  0  0  0  0  0  0  0  0  0
    6.0327    0.9500   -0.8766 C   0  0  0  0  0  0  0  0  0  0  0  0
    7.3810    1.3398   -1.2711 N   0  0  0  0  0  0  0  0  0  0  0  0
    5.5218    1.4397    0.2049 N   0  0  0  0  0  4  0  0  0  0  0  0
    3.4420    1.8747    1.8910 C   0  0  0  0  0  0  0  0  0  0  0  0
    4.1302    0.3562    1.8277 C   0  0  2  0  0  0  0  0  0  0  0  0
    5.5864    0.9626    1.3122 C   0  0  0  0  0  0  0  0  0  0  0  0
    6.3994   -0.2333    1.1777 N   0  0  0  0  0  0  0  0  0  0  0  0
    7.1343   -0.7259    2.1624 N   0  0  0  0  0  0  0  0  0  0  0  0
    7.7637   -1.8167    1.7484 C   0  0  0  0  0  0  0  0  0  0  0  0
    7.4014   -1.9972    0.4668 N   0  0  0  0  0  0  0  0  0  0  0  0
    6.5706   -1.0216    0.1406 N   0  0  0  0  0  0  0  0  0  0  0  0
    3.6157    0.1008    0.3535 N   0  0  0  0  0  0  0  0  0  0  0  0
    2.2006    0.1557    0.2627 C   0  0  0  0  0  0  0  0  0  0  0  0
    1.4098    0.3978    1.3182 N   0  0  0  0  0  0  0  0  0  0  0  0
    0.0775    0.4516    1.2434 C   0  0  0  0  0  0  0  0  0  0  0  0
   -0.4867    0.2412   -0.0084 C   0  0  0  0  0  0  0  0  0  0  0  0
   -1.8416    0.2807   -0.1642 C   0  0  0  0  0  0  0  0  0  0  0  0
   -2.3720    0.0651   -1.4341 C   0  0  0  0  0  0  0  0  0  0  0  0
   -3.7376    0.0953   -1.6414 O   0  0  0  0  0  0  0  0  0  0  0  0
   -4.6186    0.3377   -0.6088 C   0  0  0  0  0  0  0  0  0  0  0  0
   -4.0951    0.5509    0.6473 C   0  0  0  0  0  0  0  0  0  0  0  0
   -4.9027    0.7962    1.7150 C   0  0  0  0  0  0  0  0  0  0  0  0
   -6.2642    0.8312    1.5336 C   0  0  0  0  0  0  0  0  0  0  0  0
   -7.0883    1.0769    2.5990 F   0  0  0  0  0  0  0  0  0  0  0  0
   -6.7908    0.6184    0.2788 C   0  0  0  0  0  0  0  0  0  0  0  0
   -5.9696    0.3672   -0.8156 C   0  0  0  0  0  0  0  0  0  0  0  0
   -6.5219    0.1645   -2.0244 F   0  0  0  0  0  0  0  0  0  0  0  0
   -1.5144   -0.1798   -2.4863 C   0  0  0  0  0  0  0  0  0  0  0  0
   -2.0410   -0.3704   -3.6242 O   0  0  0  0  0  0  0  0  0  0  0  0
   -0.1671   -0.2197   -2.3343 N   0  0  0  0  0  0  0  0  0  0  0  0
    0.6817   -0.4814   -3.4765 C   0  0  0  0  0  0  0  0  0  0  0  0
    0.3317   -0.0067   -1.0869 C   0  0  0  0  0  0  0  0  0  0  0  0
    1.6668   -0.0532   -0.9731 N   0  0  0  0  0  0  0  0  0  0  0  0
  1  2  1  0
  2  3  1  0
  2  4  1  0
  4  5  1  0
  5  6  1  0
  6  7  2  0
  6  8  1  0
  8  9  1  1
  9 10  1  0
 10 11  1  0
 10 12  1  0
  8 13  1  0
 13 14  1  0
 14 15  2  0
 14 16  1  0
 16 17  1  0
 17 18  1  0
 18 19  1  0
 19 20  1  0
 20 21  1  0
 21 22  1  0
 21 23  2  0
 25 24  1  6
 25 26  1  0
 26 27  1  0
 27 28  1  0
 28 29  2  0
 29 30  1  0
 30 31  2  0
 25 32  1  0
 32 33  1  0
 33 34  2  0
 34 35  1  0
 35 36  2  0
 36 37  1  0
 37 38  2  0
 38 39  1  0
 39 40  1  0
 40 41  2  0
 41 42  1  0
 42 43  2  0
 43 44  1  0
 43 45  1  0
 45 46  2  0
 46 47  1  0
 38 48  1  0
 48 49  2  0
 48 50  1  0
 50 51  1  0
 50 52  1  0
 52 53  2  0
 31 27  1  0
 53 33  1  0
 52 36  1  0
 46 40  1  0
M  CHG  1  23   1
M  END

