
     RDKit          3D

 44 46  0  0  0  0  0  0  0  0999 V2000
   -3.7036   -1.0229    0.9823 C   0  0  0  0  0  0  0  0  0  0  0  0
   -2.5159   -0.2542    0.4891 C   0  0  0  0  0  0  0  0  0  0  0  0
   -1.6643    0.1800    1.3115 O   0  0  0  0  0  0  0  0  0  0  0  0
   -2.3791   -0.0374   -0.8720 N   0  0  0  0  0  0  0  0  0  0  0  0
   -1.1790    0.7474   -1.4600 C   0  0  1  0  0  0  0  0  0  0  0  0
   -1.0602    1.8130   -0.2256 C   0  0  0  0  0  0  0  0  0  0  0  0
    0.0284    2.5852   -0.6737 O   0  0  0  0  0  0  0  0  0  0  0  0
   -0.0236   -0.1957   -1.0009 C   0  0  0  0  0  0  0  0  0  0  0  0
   -0.2229   -1.2154   -0.3636 O   0  0  0  0  0  0  0  0  0  0  0  0
    1.2838    0.1708   -1.3493 N   0  0  0  0  0  0  0  0  0  0  0  0
    2.3796   -0.6449   -0.9569 C   0  0  0  0  0  0  0  0  0  0  0  0
    2.5580   -0.8362    0.5031 C   0  0  0  0  0  0  0  0  0  0  0  0
    3.7812   -1.7353    0.7037 C   0  0  0  0  0  0  0  0  0  0  0  0
    2.7179    0.4456    1.2841 C   0  0  0  0  0  0  0  0  0  0  0  0
   -3.8611   -0.7606    2.6543 C   0  0  0  0  0  0  0  0  0  0  0  0
   -4.6655    0.3861    1.7424 C   0  0  2  0  0  0  0  0  0  0  0  0
   -5.8032   -0.7344    1.2337 C   0  0  0  0  0  0  0  0  0  0  0  0
   -6.6779    0.0314    0.3791 N   0  0  0  0  0  0  0  0  0  0  0  0
   -6.5073    0.1832   -0.9171 N   0  0  0  0  0  0  0  0  0  0  0  0
   -7.5054    0.9463   -1.3550 C   0  0  0  0  0  0  0  0  0  0  0  0
   -8.2760    1.2499   -0.3051 N   0  0  0  0  0  0  0  0  0  0  0  0
   -7.7431    0.6717    0.7579 N   0  0  0  0  0  0  0  0  0  0  0  0
   -3.7447    0.1205    0.4765 N   0  0  0  0  0  0  0  0  0  0  0  0
   -2.3602    0.3731    0.7434 C   0  0  0  0  0  0  0  0  0  0  0  0
   -1.8957    0.7881    1.9325 N   0  0  0  0  0  0  0  0  0  0  0  0
   -0.5678    1.0055    2.1056 C   0  0  0  0  0  0  0  0  0  0  0  0
    0.2935    0.7970    1.0546 C   0  0  0  0  0  0  0  0  0  0  0  0
    1.6741    0.9968    1.1473 C   0  0  0  0  0  0  0  0  0  0  0  0
    2.4941    0.7752    0.0694 C   0  0  0  0  0  0  0  0  0  0  0  0
    3.8467    0.9853    0.2082 O   0  0  0  0  0  0  0  0  0  0  0  0
    4.7192   -0.0745   -0.0019 C   0  0  0  0  0  0  0  0  0  0  0  0
    4.3003   -1.3440   -0.3467 C   0  0  0  0  0  0  0  0  0  0  0  0
    5.1940   -2.3795   -0.5493 C   0  0  0  0  0  0  0  0  0  0  0  0
    6.5530   -2.1947   -0.4164 C   0  0  0  0  0  0  0  0  0  0  0  0
    7.4405   -3.2164   -0.6160 F   0  0  0  0  0  0  0  0  0  0  0  0
    6.9788   -0.9298   -0.0723 C   0  0  0  0  0  0  0  0  0  0  0  0
    6.0818    0.1037    0.1295 C   0  0  0  0  0  0  0  0  0  0  0  0
    6.5328    1.3411    0.4684 F   0  0  0  0  0  0  0  0  0  0  0  0
    1.9348    0.3519   -1.1079 C   0  0  0  0  0  0  0  0  0  0  0  0
    2.6601    0.1427   -2.1047 O   0  0  0  0  0  0  0  0  0  0  0  0
    0.5903    0.1473   -1.2316 N   0  0  0  0  0  0  0  0  0  0  0  0
    0.0564   -0.2957   -2.4849 C   0  0  0  0  0  0  0  0  0  0  0  0
   -0.2108    0.3701   -0.1577 C   0  0  0  0  0  0  0  0  0  0  0  0
   -1.5317    0.1627   -0.3006 N   0  0  0  0  0  0  0  0  0  0  0  0
  1  2  1  0
  2  3  2  0
  2  4  1  0
  4  5  1  0
  5  6  1  1
  6  7  1  0
  5  8  1  0
  8  9  2  0
  8 10  1  0
 10 11  1  0
 11 12  1  0
 12 13  1  0
 12 14  1  0
 16 15  1  1
 16 17  1  0
 17 18  1  0
 18 19  1  0
 19 20  2  0
 20 21  1  0
 21 22  2  0
 16 23  1  0
 23 24  1  0
 24 25  2  0
 25 26  1  0
 26 27  2  0
 27 28  1  0
 28 29  2  0
 29 30  1  0
 30 31  1  0
 31 32  2  0
 32 33  1  0
 33 34  2  0
 34 35  1  0
 34 36  1  0
 36 37  2  0
 37 38  1  0
 29 39  1  0
 39 40  2  0
 39 41  1  0
 41 42  1  0
 41 43  1  0
 43 44  2  0
 22 18  1  0
 44 24  1  0
 43 27  1  0
 37 31  1  0
M  END

