
     RDKit          3D

 21 20  0  0  0  0  0  0  0  0999 V2000
    0.3622    4.2982    1.7997 C   0  0  0  0  0  0  0  0  0  0  0  0
    0.6230    3.9912    0.3332 C   0  0  0  0  0  0  0  0  0  0  0  0
    0.4891    2.5264    0.1367 C   0  0  0  0  0  0  0  0  0  0  0  0
    0.2645    1.7620    1.1599 O   0  0  0  0  0  0  0  0  0  0  0  0
    0.5801    1.8819   -1.0478 N   0  0  0  0  0  0  0  0  0  0  0  0
    0.4533    0.4116   -1.3733 C   0  0  1  0  0  0  0  0  0  0  0  0
    1.4775   -0.1216   -0.2391 C   0  0  0  0  0  0  0  0  0  0  0  0
    1.4991   -1.6098   -0.3585 C   0  0  0  0  0  0  0  0  0  0  0  0
    2.4250   -2.2140    0.5872 C   0  0  0  0  0  0  0  0  0  0  0  0
    3.7924   -1.9753    0.5460 N   0  0  0  0  0  0  0  0  0  0  0  0
    4.5844   -0.8440    0.6457 C   0  0  0  0  0  0  0  0  0  0  0  0
    6.0148   -0.9988    0.5471 N   0  0  0  0  0  0  0  0  0  0  0  0
    4.0108    0.2884    0.8180 N   0  0  0  0  0  4  0  0  0  0  0  0
   -0.9271    0.0162   -0.7426 C   0  0  0  0  0  0  0  0  0  0  0  0
   -1.6709    0.8883   -0.2775 O   0  0  0  0  0  0  0  0  0  0  0  0
   -1.3451   -1.3147   -0.6921 N   0  0  0  0  0  0  0  0  0  0  0  0
   -2.5971   -1.6853   -0.1252 C   0  0  0  0  0  0  0  0  0  0  0  0
   -3.6820   -1.0230   -0.9297 C   0  0  0  0  0  0  0  0  0  0  0  0
   -5.0330   -1.3397   -0.4017 C   0  0  0  0  0  0  0  0  0  0  0  0
   -6.2245   -1.0831   -1.1151 N   0  0  0  0  0  0  0  0  0  0  0  0
   -5.0966   -1.8549    0.7292 O   0  0  0  0  0  0  0  0  0  0  0  0
  1  2  1  0
  2  3  1  0
  3  4  2  0
  3  5  1  0
  5  6  1  0
  6  7  1  1
  7  8  1  0
  8  9  1  0
  9 10  1  0
 10 11  1  0
 11 12  1  0
 11 13  2  0
  6 14  1  0
 14 15  2  0
 14 16  1  0
 16 17  1  0
 17 18  1  0
 18 19  1  0
 19 20  1  0
 19 21  2  0
M  CHG  1  13   1
M  END

