
     RDKit          3D

 20 20  0  0  0  0  0  0  0  0999 V2000
   -2.6517   -2.7242   -0.7829 C   0  0  0  0  0  0  0  0  0  0  0  0
   -2.2888   -1.7456    0.2601 N   0  0  0  0  0  0  0  0  0  0  0  0
   -0.9240   -1.5728    0.4659 C   0  0  0  0  0  0  0  0  0  0  0  0
   -0.0414   -2.1748   -0.1653 O   0  0  0  0  0  0  0  0  0  0  0  0
   -0.3883   -0.5764    1.5529 C   0  0  2  0  0  0  0  0  0  0  0  0
   -0.2332    0.7330    0.6040 C   0  0  0  0  0  0  0  0  0  0  0  0
   -1.6026    0.9837    0.1149 C   0  0  0  0  0  0  0  0  0  0  0  0
   -2.0747    0.5634   -1.1074 C   0  0  0  0  0  0  0  0  0  0  0  0
   -3.3693    0.8103   -1.5369 C   0  0  0  0  0  0  0  0  0  0  0  0
   -4.2396    1.5028   -0.7241 C   0  0  0  0  0  0  0  0  0  0  0  0
   -3.8108    1.9323    0.4857 C   0  0  0  0  0  0  0  0  0  0  0  0
   -2.5273    1.6876    0.9109 C   0  0  0  0  0  0  0  0  0  0  0  0
    1.1283   -0.8999    1.5615 N   0  0  0  0  0  0  0  0  0  0  0  0
    2.0146   -0.6576    0.5525 C   0  0  0  0  0  0  0  0  0  0  0  0
    1.5334   -0.1043   -0.4996 O   0  0  0  0  0  0  0  0  0  0  0  0
    3.4728   -1.0142    0.6550 C   0  0  0  0  0  0  0  0  0  0  0  0
    4.1407   -0.6040   -0.6042 C   0  0  0  0  0  0  0  0  0  0  0  0
    3.9958    0.8530   -0.7675 C   0  0  0  0  0  0  0  0  0  0  0  0
    3.3504    1.6757    0.1257 O   0  0  0  0  0  1  0  0  0  0  0  0
    4.5155    1.3320   -1.8142 O   0  0  0  0  0  0  0  0  0  0  0  0
  1  2  1  0
  2  3  1  0
  3  4  2  0
  3  5  1  0
  5  6  1  6
  6  7  1  0
  7  8  2  0
  8  9  1  0
  9 10  2  0
 10 11  1  0
 11 12  2  0
  5 13  1  0
 13 14  1  0
 14 15  2  0
 14 16  1  0
 16 17  1  0
 17 18  1  0
 18 19  1  0
 18 20  2  0
 12  7  1  0
M  RAD  1  19   2
M  END

