
     RDKit          3D

 18 17  0  0  0  0  0  0  0  0999 V2000
    7.3136   -0.0403    0.7897 N   0  0  0  0  0  0  0  0  0  0  0  0
    6.0089   -0.3440    0.3100 C   0  0  0  0  0  0  0  0  0  0  0  0
    5.6915   -1.5716   -0.0075 N   0  0  0  0  0  4  0  0  0  0  0  0
    5.0687    0.7302    0.1859 N   0  0  0  0  0  0  0  0  0  0  0  0
    3.7345    0.4478   -0.3029 C   0  0  0  0  0  0  0  0  0  0  0  0
    3.1031   -0.5385    0.6911 C   0  0  0  0  0  0  0  0  0  0  0  0
    1.7095   -0.8472    0.1761 C   0  0  0  0  0  0  0  0  0  0  0  0
    0.9192    0.4451    0.0959 C   0  0  0  0  0  0  0  0  0  0  0  0
   -0.3867    0.1059   -0.4213 N   0  0  0  0  0  0  0  0  0  0  0  0
   -1.2748   -0.7883    0.2358 C   0  0  0  0  0  0  0  0  0  0  0  0
   -1.0408   -1.3422    1.2746 O   0  0  0  0  0  0  0  0  0  0  0  0
   -2.6042   -0.9347   -0.6083 C   0  0  1  0  0  0  0  0  0  0  0  0
   -3.3310   -1.8998    0.3746 N   0  0  0  0  0  4  0  0  0  0  0  0
   -3.3123    0.4115   -0.0164 C   0  0  0  0  0  0  0  0  0  0  0  0
   -4.6272    0.4029   -0.7917 C   0  0  0  0  0  0  0  0  0  0  0  0
   -5.4650    1.5645   -0.4195 C   0  0  0  0  0  0  0  0  0  0  0  0
   -5.0157    2.8140   -0.8732 O   0  0  0  0  0  1  0  0  0  0  0  0
   -6.4911    1.3848    0.2573 O   0  0  0  0  0  0  0  0  0  0  0  0
  1  2  1  0
  2  3  2  0
  2  4  1  0
  4  5  1  0
  5  6  1  0
  6  7  1  0
  7  8  1  0
  8  9  1  0
  9 10  1  0
 10 11  2  0
 10 12  1  0
 12 13  1  1
 12 14  1  0
 14 15  1  0
 15 16  1  0
 16 17  1  0
 16 18  2  0
M  CHG  2   3   1  13   1
M  RAD  1  17   2
M  END

