
     RDKit          3D

 21 21  0  0  0  0  0  0  0  0999 V2000
    6.4572   -1.1268    1.5592 C   0  0  0  0  0  0  0  0  0  0  0  0
    5.5039    0.0407    1.3601 C   0  0  0  0  0  0  0  0  0  0  0  0
    6.1115    1.0890    0.4461 C   0  0  0  0  0  0  0  0  0  0  0  0
    4.2276   -0.5302    0.7415 C   0  0  0  0  0  0  0  0  0  0  0  0
    3.2691    0.6212    0.5432 C   0  0  0  0  0  0  0  0  0  0  0  0
    2.0335    0.0600   -0.0652 C   0  0  0  0  0  0  0  0  0  0  0  0
    1.9601   -1.1624   -0.3333 O   0  0  0  0  0  0  0  0  0  0  0  0
    0.9877    0.9064   -0.3218 N   0  0  0  0  0  0  0  0  0  0  0  0
   -0.3638    0.4543   -0.9565 C   0  0  1  0  0  0  0  0  0  0  0  0
   -0.0650   -1.1535   -0.8853 C   0  0  0  0  0  0  0  0  0  0  0  0
   -1.2544   -1.8523   -1.4505 C   0  0  0  0  0  0  0  0  0  0  0  0
   -2.4786   -1.5656   -0.6334 C   0  0  0  0  0  0  0  0  0  0  0  0
   -3.6437   -2.3095   -1.2616 C   0  0  0  0  0  0  0  0  0  0  0  0
   -3.3057   -3.7182   -1.2386 N   0  0  0  0  0  4  0  0  0  0  0  0
   -1.2396    0.5748    0.3487 C   0  0  0  0  0  0  0  0  0  0  0  0
   -0.8277    0.2084    1.4385 O   0  0  0  0  0  0  0  0  0  0  0  0
   -2.5082    1.1291    0.1739 N   0  0  0  0  0  0  0  0  0  0  0  0
   -3.5624    1.3407    1.1804 C   0  0  0  0  0  0  0  0  0  0  0  0
   -4.3625    2.4987    0.7612 C   0  0  0  0  0  0  0  0  0  0  0  0
   -3.8856    2.8370   -0.6248 C   0  0  0  0  0  0  0  0  0  0  0  0
   -3.0534    1.6582   -1.0820 C   0  0  0  0  0  0  0  0  0  0  0  0
  1  2  1  0
  2  3  1  0
  2  4  1  0
  4  5  1  0
  5  6  1  0
  6  7  2  0
  6  8  1  0
  8  9  1  0
  9 10  1  1
 10 11  1  0
 11 12  1  0
 12 13  1  0
 13 14  1  0
  9 15  1  0
 15 16  2  0
 15 17  1  0
 17 18  1  0
 18 19  1  0
 19 20  1  0
 20 21  1  0
 21 17  1  0
M  CHG  1  14   1
M  END

