
     RDKit          3D

 21 20  0  0  0  0  0  0  0  0999 V2000
    0.8467    0.2938    0.7321 C   0  0  0  0  0  0  0  0  0  0  0  0
   -0.1569    1.4620    1.2332 C   0  0  1  0  0  0  0  0  0  0  0  0
    0.8954    2.5156    1.4864 O   0  0  0  0  0  0  0  0  0  0  0  0
   -0.6204    2.1328   -0.2790 C   0  0  2  0  0  0  0  0  0  0  0  0
   -1.6841    1.0675   -0.6567 N   0  0  0  0  0  0  0  0  0  0  0  0
   -2.2108    0.1711    0.2033 C   0  0  0  0  0  0  0  0  0  0  0  0
   -1.8424    0.1669    1.4029 O   0  0  0  0  0  0  0  0  0  0  0  0
   -3.2176   -0.8195   -0.2020 C   0  0  0  0  0  0  0  0  0  0  0  0
   -3.6057   -1.7165    0.9821 C   0  0  0  0  0  0  0  0  0  0  0  0
   -4.6159   -2.7041    0.5448 C   0  0  0  0  0  0  0  0  0  0  0  0
   -5.0680   -3.6067    1.4896 O   0  0  0  0  0  1  0  0  0  0  0  0
   -5.0861   -2.7879   -0.6036 O   0  0  0  0  0  0  0  0  0  0  0  0
    0.5170    1.6148   -1.2211 C   0  0  0  0  0  0  0  0  0  0  0  0
    0.3463    0.6156   -1.9119 O   0  0  0  0  0  0  0  0  0  0  0  0
    1.7421    2.2987   -1.2789 N   0  0  0  0  0  0  0  0  0  0  0  0
    2.7849    1.8514   -2.1430 C   0  0  0  0  0  0  0  0  0  0  0  0
    3.3291    0.4712   -1.9108 C   0  0  0  0  0  0  0  0  0  0  0  0
    3.9319    0.3779   -0.5198 C   0  0  0  0  0  0  0  0  0  0  0  0
    4.4590   -1.0556   -0.3828 C   0  0  0  0  0  0  0  0  0  0  0  0
    5.0773   -1.2750    0.9609 C   0  0  0  0  0  0  0  0  0  0  0  0
    4.1780   -1.0740    2.0745 N   0  0  0  0  0  4  0  0  0  0  0  0
  2  1  1  6
  2  3  1  0
  2  4  1  0
  4  5  1  6
  5  6  1  0
  6  7  2  0
  6  8  1  0
  8  9  1  0
  9 10  1  0
 10 11  1  0
 10 12  2  0
  4 13  1  0
 13 14  2  0
 13 15  1  0
 15 16  1  0
 16 17  1  0
 17 18  1  0
 18 19  1  0
 19 20  1  0
 20 21  1  0
M  CHG  1  21   1
M  RAD  1  11   2
M  END

