
     RDKit          3D

 52 54  0  0  0  0  0  0  0  0999 V2000
   -5.0220    2.8430    1.8619 C   0  0  0  0  0  0  0  0  0  0  0  0
   -5.1637    1.5659    1.0952 C   0  0  0  0  0  0  0  0  0  0  0  0
   -6.2747    1.6027    0.0723 C   0  0  0  0  0  0  0  0  0  0  0  0
   -3.8905    1.2449    0.3847 C   0  0  0  0  0  0  0  0  0  0  0  0
   -4.1039   -0.0702   -0.3773 C   0  0  0  0  0  0  0  0  0  0  0  0
   -2.8429   -0.3387   -1.0480 N   0  0  0  0  0  0  0  0  0  0  0  0
   -1.6198   -0.5123   -0.3797 C   0  0  0  0  0  0  0  0  0  0  0  0
   -1.5481   -0.4447    0.8289 O   0  0  0  0  0  0  0  0  0  0  0  0
   -0.3056   -0.7996   -1.1732 C   0  0  2  0  0  0  0  0  0  0  0  0
   -0.4478   -2.4023   -1.4486 C   0  0  0  0  0  0  0  0  0  0  0  0
   -0.5071   -3.1534   -0.2398 C   0  0  0  0  0  0  0  0  0  0  0  0
   -0.3624   -2.7520    1.1057 N   0  0  0  0  0  0  0  0  0  0  0  0
   -0.7265   -4.4091   -0.3646 O   0  0  0  0  0  0  0  0  0  0  0  0
    0.6654   -0.9629    0.0454 N   0  0  0  0  0  0  0  0  0  0  0  0
    1.7526   -0.0190    0.0323 C   0  0  0  0  0  0  0  0  0  0  0  0
    1.8596    0.8289   -0.8916 O   0  0  0  0  0  0  0  0  0  0  0  0
    2.7425   -0.0775    1.1418 C   0  0  0  0  0  0  0  0  0  0  0  0
    3.7908    0.9925    0.9455 C   0  0  0  0  0  0  0  0  0  0  0  0
    4.4801    0.7424   -0.3784 C   0  0  0  0  0  0  0  0  0  0  0  0
    5.5354    1.7618   -0.6457 C   0  0  0  0  0  0  0  0  0  0  0  0
    6.2730    1.7103   -1.8393 N   0  0  0  0  0  0  0  0  0  0  0  0
    5.7156    2.6494    0.2486 O   0  0  0  0  0  0  0  0  0  0  0  0
   -5.6545    0.6196   -1.6215 C   0  0  0  0  0  0  0  0  0  0  0  0
   -4.6353   -0.5594   -1.0460 C   0  0  2  0  0  0  0  0  0  0  0  0
   -5.1785   -0.3659    0.5190 C   0  0  0  0  0  0  0  0  0  0  0  0
   -6.5698   -0.6751    0.3405 N   0  0  0  0  0  0  0  0  0  0  0  0
   -7.1814   -1.8638    0.4303 N   0  0  0  0  0  0  0  0  0  0  0  0
   -8.5071   -1.6795    0.1836 C   0  0  0  0  0  0  0  0  0  0  0  0
   -8.6849   -0.3650   -0.0557 N   0  0  0  0  0  0  0  0  0  0  0  0
   -7.5017    0.1923    0.0491 N   0  0  0  0  0  0  0  0  0  0  0  0
   -3.4295    0.4557   -0.9095 N   0  0  0  0  0  0  0  0  0  0  0  0
   -2.2138   -0.0402   -0.4287 C   0  0  0  0  0  0  0  0  0  0  0  0
   -1.9763   -1.3112   -0.0696 N   0  0  0  0  0  0  0  0  0  0  0  0
   -0.7490   -1.6526    0.3798 C   0  0  0  0  0  0  0  0  0  0  0  0
    0.2869   -0.7479    0.4898 C   0  0  0  0  0  0  0  0  0  0  0  0
    1.5373   -1.1120    0.9513 C   0  0  0  0  0  0  0  0  0  0  0  0
    2.5145   -0.1155    1.0227 C   0  0  0  0  0  0  0  0  0  0  0  0
    3.7515   -0.4768    1.4796 O   0  0  0  0  0  0  0  0  0  0  0  0
    4.8806   -0.3260    0.6916 C   0  0  0  0  0  0  0  0  0  0  0  0
    5.8908    0.4982    1.1793 C   0  0  0  0  0  0  0  0  0  0  0  0
    7.0202    0.6615    0.4128 C   0  0  0  0  0  0  0  0  0  0  0  0
    7.1840    0.0452   -0.8056 C   0  0  0  0  0  0  0  0  0  0  0  0
    8.3104    0.2220   -1.5459 F   0  0  0  0  0  0  0  0  0  0  0  0
    6.1564   -0.7668   -1.2558 C   0  0  0  0  0  0  0  0  0  0  0  0
    5.0016   -0.9613   -0.5197 C   0  0  0  0  0  0  0  0  0  0  0  0
    4.0235   -1.7530   -0.9809 F   0  0  0  0  0  0  0  0  0  0  0  0
    2.1964    1.1656    0.6369 C   0  0  0  0  0  0  0  0  0  0  0  0
    3.0765    2.0778    0.6979 O   0  0  0  0  0  0  0  0  0  0  0  0
    0.9516    1.4953    0.1848 N   0  0  0  0  0  0  0  0  0  0  0  0
    0.7029    2.8568   -0.1981 C   0  0  0  0  0  0  0  0  0  0  0  0
    0.0034    0.5460    0.1116 C   0  0  0  0  0  0  0  0  0  0  0  0
   -1.2068    0.8484   -0.3239 N   0  0  0  0  0  0  0  0  0  0  0  0
  1  2  1  0
  2  3  1  0
  2  4  1  0
  4  5  1  0
  5  6  1  0
  6  7  1  0
  7  8  2  0
  7  9  1  0
  9 10  1  1
 10 11  1  0
 11 12  1  0
 11 13  2  0
  9 14  1  0
 14 15  1  0
 15 16  2  0
 15 17  1  0
 17 18  1  0
 18 19  1  0
 19 20  1  0
 20 21  1  0
 20 22  2  0
 24 23  1  6
 24 25  1  0
 25 26  1  0
 26 27  1  0
 27 28  2  0
 28 29  1  0
 29 30  2  0
 24 31  1  0
 31 32  1  0
 32 33  2  0
 33 34  1  0
 34 35  2  0
 35 36  1  0
 36 37  2  0
 37 38  1  0
 38 39  1  0
 39 40  2  0
 40 41  1  0
 41 42  2  0
 42 43  1  0
 42 44  1  0
 44 45  2  0
 45 46  1  0
 37 47  1  0
 47 48  2  0
 47 49  1  0
 49 50  1  0
 49 51  1  0
 51 52  2  0
 30 26  1  0
 52 32  1  0
 51 35  1  0
 45 39  1  0
M  END

