
     RDKit          3D

 23 22  0  0  0  0  0  0  0  0999 V2000
   -5.4545    4.8639    1.1357 C   0  0  0  0  0  0  0  0  0  0  0  0
   -4.3132    3.6245    1.7694 S   0  0  0  0  0  0  0  0  0  0  0  0
   -4.2927    2.1619    0.6724 C   0  0  0  0  0  0  0  0  0  0  0  0
   -3.7004    2.6231   -0.6369 C   0  0  0  0  0  0  0  0  0  0  0  0
   -3.6251    1.5063   -1.6322 C   0  0  0  0  0  0  0  0  0  0  0  0
   -2.8087    0.3994   -1.1730 N   0  0  0  0  0  0  0  0  0  0  0  0
   -1.4473    0.5372   -0.8516 C   0  0  0  0  0  0  0  0  0  0  0  0
   -0.8735    1.6099   -0.9422 O   0  0  0  0  0  0  0  0  0  0  0  0
   -0.6963   -0.7442   -0.3718 C   0  0  2  0  0  0  0  0  0  0  0  0
   -1.1339   -0.5873    1.2127 C   0  0  0  0  0  0  0  0  0  0  0  0
   -0.4817   -1.7864    1.9040 C   0  0  0  0  0  0  0  0  0  0  0  0
   -1.0086   -3.0561    1.2953 C   0  0  0  0  0  0  0  0  0  0  0  0
   -2.5175   -3.1070    1.4868 C   0  0  0  0  0  0  0  0  0  0  0  0
   -3.1195   -4.2811    0.9383 N   0  0  0  0  0  4  0  0  0  0  0  0
    0.6952   -0.0858   -0.1504 N   0  0  0  0  0  0  0  0  0  0  0  0
    1.7762   -0.6707   -0.8970 C   0  0  0  0  0  0  0  0  0  0  0  0
    1.6301   -1.6362   -1.6732 O   0  0  0  0  0  0  0  0  0  0  0  0
    3.0977   -0.0755   -0.7086 C   0  0  0  0  0  0  0  0  0  0  0  0
    4.1786   -0.7341   -1.5215 C   0  0  0  0  0  0  0  0  0  0  0  0
    5.5253   -0.1183   -1.3211 C   0  0  0  0  0  0  0  0  0  0  0  0
    6.0336   -0.1572    0.0500 C   0  0  0  0  0  0  0  0  0  0  0  0
    6.0434    0.9430    0.8979 O   0  0  0  0  0  1  0  0  0  0  0  0
    6.4929   -1.2293    0.5134 O   0  0  0  0  0  0  0  0  0  0  0  0
  1  2  1  0
  2  3  1  0
  3  4  1  0
  4  5  1  0
  5  6  1  0
  6  7  1  0
  7  8  2  0
  7  9  1  0
  9 10  1  1
 10 11  1  0
 11 12  1  0
 12 13  1  0
 13 14  1  0
  9 15  1  0
 15 16  1  0
 16 17  2  0
 16 18  1  0
 18 19  1  0
 19 20  1  0
 20 21  1  0
 21 22  1  0
 21 23  2  0
M  CHG  1  14   1
M  RAD  1  22   2
M  END

