
     RDKit          3D

 15 15  0  0  0  0  0  0  0  0999 V2000
   -2.9358    1.2483    1.3606 C   0  0  0  0  0  0  0  0  0  0  0  0
   -1.8310    0.5095    0.7930 N   0  0  0  0  0  0  0  0  0  0  0  0
   -1.7160    0.3496   -0.5654 C   0  0  0  0  0  0  0  0  0  0  0  0
   -2.5327    0.8186   -1.3544 O   0  0  0  0  0  0  0  0  0  0  0  0
   -0.5315   -0.4481   -1.2511 C   0  0  2  0  0  0  0  0  0  0  0  0
   -1.3484   -1.9191   -1.2930 C   0  0  0  0  0  0  0  0  0  0  0  0
   -1.8190   -1.9840    0.1221 C   0  0  0  0  0  0  0  0  0  0  0  0
   -0.6408   -1.4839    0.9144 C   0  0  0  0  0  0  0  0  0  0  0  0
    0.2556   -0.8470    0.0505 N   0  0  0  0  0  0  0  0  0  0  0  0
    1.5973   -0.5254    0.1181 C   0  0  0  0  0  0  0  0  0  0  0  0
    2.1933   -0.8672    1.1983 O   0  0  0  0  0  0  0  0  0  0  0  0
    2.4645    0.1390   -0.8278 C   0  0  0  0  0  0  0  0  0  0  0  0
    2.8119    1.6544   -0.2549 C   0  0  1  0  0  0  0  0  0  0  0  0
    1.2106    2.1237   -0.2279 C   0  0  0  0  0  0  0  0  0  0  0  0
    2.8221    1.2316    1.2174 O   0  0  0  0  0  0  0  0  0  0  0  0
  1  2  1  0
  2  3  1  0
  3  4  2  0
  5  3  1  1
  5  6  1  0
  6  7  1  0
  7  8  1  0
  8  9  1  0
  9 10  1  0
 10 11  2  0
 10 12  1  0
 12 13  1  0
 13 14  1  1
 13 15  1  0
  9  5  1  0
M  END

