
     RDKit          3D

 48 51  0  0  0  0  0  0  0  0999 V2000
   -2.7145    3.5268    1.0323 C   0  0  0  0  0  0  0  0  0  0  0  0
   -2.2114    2.1332    1.2341 C   0  0  0  0  0  0  0  0  0  0  0  0
   -2.4578    1.2529    0.0783 C   0  0  0  0  0  0  0  0  0  0  0  0
   -3.0396    1.6687   -0.9641 O   0  0  0  0  0  0  0  0  0  0  0  0
   -2.0481   -0.0858    0.1047 N   0  0  0  0  0  0  0  0  0  0  0  0
   -2.1398   -1.1415   -0.8179 C   0  0  0  0  0  0  0  0  0  0  0  0
   -2.2095   -2.3900   -0.0188 C   0  0  0  0  0  0  0  0  0  0  0  0
   -2.1768   -2.0461    1.4153 C   0  0  0  0  0  0  0  0  0  0  0  0
   -1.3291   -0.6170    1.3813 C   0  0  1  0  0  0  0  0  0  0  0  0
   -0.0220   -1.2037    0.7294 C   0  0  0  0  0  0  0  0  0  0  0  0
    0.8218   -1.7364    1.4606 O   0  0  0  0  0  0  0  0  0  0  0  0
    0.1591   -1.1137   -0.6409 N   0  0  0  0  0  0  0  0  0  0  0  0
    1.3244   -1.6172   -1.3672 C   0  0  0  0  0  0  0  0  0  0  0  0
    2.6015   -0.9661   -0.9027 C   0  0  0  0  0  0  0  0  0  0  0  0
    2.5837    0.5387   -1.0961 C   0  0  0  0  0  0  0  0  0  0  0  0
    3.8746    1.0624   -0.6100 C   0  0  0  0  0  0  0  0  0  0  0  0
    4.1955    2.4231   -0.6413 O   0  0  0  0  0  1  0  0  0  0  0  0
    4.7880    0.3117   -0.1274 O   0  0  0  0  0  0  0  0  0  0  0  0
   -5.7646    2.5067    1.2726 C   0  0  0  0  0  0  0  0  0  0  0  0
   -4.1555    2.6967    0.9051 C   0  0  2  0  0  0  0  0  0  0  0  0
   -4.4292    2.5742   -0.7248 C   0  0  0  0  0  0  0  0  0  0  0  0
   -5.0061    1.3223   -0.9955 N   0  0  0  0  0  0  0  0  0  0  0  0
   -4.3312    0.2137   -1.2770 N   0  0  0  0  0  0  0  0  0  0  0  0
   -5.2124   -0.7773   -1.4764 C   0  0  0  0  0  0  0  0  0  0  0  0
   -6.4225   -0.2487   -1.3109 N   0  0  0  0  0  0  0  0  0  0  0  0
   -6.2822    1.0122   -1.0227 N   0  0  0  0  0  0  0  0  0  0  0  0
   -3.8277    1.1706    1.1778 N   0  0  0  0  0  0  0  0  0  0  0  0
   -2.4389    0.9306    0.9504 C   0  0  0  0  0  0  0  0  0  0  0  0
   -1.5583    1.8681    0.5642 N   0  0  0  0  0  0  0  0  0  0  0  0
   -0.2542    1.6221    0.3552 C   0  0  0  0  0  0  0  0  0  0  0  0
    0.2414    0.3510    0.5373 C   0  0  0  0  0  0  0  0  0  0  0  0
    1.5513    0.0086    0.3486 C   0  0  0  0  0  0  0  0  0  0  0  0
    1.9331   -1.3016    0.5625 C   0  0  0  0  0  0  0  0  0  0  0  0
    3.2492   -1.7265    0.3909 O   0  0  0  0  0  0  0  0  0  0  0  0
    4.2569   -0.8576   -0.0058 C   0  0  0  0  0  0  0  0  0  0  0  0
    3.9536    0.4629   -0.2378 C   0  0  0  0  0  0  0  0  0  0  0  0
    4.9498    1.3325   -0.6323 C   0  0  0  0  0  0  0  0  0  0  0  0
    6.2197    0.8813   -0.7887 C   0  0  0  0  0  0  0  0  0  0  0  0
    7.1864    1.7476   -1.1765 F   0  0  0  0  0  0  0  0  0  0  0  0
    6.5313   -0.4381   -0.5586 C   0  0  0  0  0  0  0  0  0  0  0  0
    5.5463   -1.3205   -0.1635 C   0  0  0  0  0  0  0  0  0  0  0  0
    5.8077   -2.6319    0.0750 F   0  0  0  0  0  0  0  0  0  0  0  0
    1.0029   -2.2417    0.9593 C   0  0  0  0  0  0  0  0  0  0  0  0
    1.3610   -3.4405    1.1532 O   0  0  0  0  0  0  0  0  0  0  0  0
   -0.2791   -1.8985    1.1422 N   0  0  0  0  0  0  0  0  0  0  0  0
   -1.2714   -2.8816    1.5611 C   0  0  0  0  0  0  0  0  0  0  0  0
   -0.6397   -0.6236    0.9319 C   0  0  0  0  0  0  0  0  0  0  0  0
   -1.9175   -0.3132    1.1213 N   0  0  0  0  0  0  0  0  0  0  0  0
  1  2  1  0
  2  3  1  0
  3  4  2  0
  3  5  1  0
  5  6  1  0
  6  7  1  0
  7  8  1  0
  8  9  1  0
  9 10  1  6
 10 11  2  0
 10 12  1  0
 12 13  1  0
 13 14  1  0
 14 15  1  0
 15 16  1  0
 16 17  1  0
 16 18  2  0
 20 19  1  1
 20 21  1  0
 21 22  1  0
 22 23  1  0
 23 24  2  0
 24 25  1  0
 25 26  2  0
 20 27  1  0
 27 28  1  0
 28 29  2  0
 29 30  1  0
 30 31  2  0
 31 32  1  0
 32 33  2  0
 33 34  1  0
 34 35  1  0
 35 36  2  0
 36 37  1  0
 37 38  2  0
 38 39  1  0
 38 40  1  0
 40 41  2  0
 41 42  1  0
 33 43  1  0
 43 44  2  0
 43 45  1  0
 45 46  1  0
 45 47  1  0
 47 48  2  0
  9  5  1  0
 26 22  1  0
 48 28  1  0
 47 31  1  0
 41 35  1  0
M  RAD  1  17   2
M  END

