
     RDKit          3D

 48 50  0  0  0  0  0  0  0  0999 V2000
   -4.1412   -1.5193   -0.9919 C   0  0  0  0  0  0  0  0  0  0  0  0
   -3.4421   -0.3033   -1.5869 C   0  0  0  0  0  0  0  0  0  0  0  0
   -2.2332    0.0070   -0.7862 C   0  0  0  0  0  0  0  0  0  0  0  0
   -1.9168   -0.6734    0.1917 O   0  0  0  0  0  0  0  0  0  0  0  0
   -1.4456    1.0964   -1.1645 N   0  0  0  0  0  0  0  0  0  0  0  0
   -0.1560    1.4130   -0.3026 C   0  0  1  0  0  0  0  0  0  0  0  0
   -0.9050    1.2863    1.1632 C   0  0  0  0  0  0  0  0  0  0  0  0
   -1.8968    2.3778    1.0483 C   0  0  0  0  0  0  0  0  0  0  0  0
   -3.1646    2.1599    0.5701 O   0  0  0  0  0  1  0  0  0  0  0  0
   -1.5436    3.5349    1.4046 O   0  0  0  0  0  0  0  0  0  0  0  0
    0.5235    0.0011   -0.3065 C   0  0  0  0  0  0  0  0  0  0  0  0
    0.2719   -0.7853   -1.1942 O   0  0  0  0  0  0  0  0  0  0  0  0
    1.4001   -0.2936    0.7307 N   0  0  0  0  0  0  0  0  0  0  0  0
    2.1276   -1.5422    0.8812 C   0  0  0  0  0  0  0  0  0  0  0  0
    3.0931   -1.5643   -0.4926 C   0  0  1  0  0  0  0  0  0  0  0  0
    3.8262   -0.1247   -0.0447 C   0  0  0  0  0  0  0  0  0  0  0  0
    4.2712   -2.4543    0.2920 C   0  0  0  0  0  0  0  0  0  0  0  0
    5.3315   -2.6159   -0.8098 C   0  0  0  0  0  0  0  0  0  0  0  0
    4.0733   -0.1853    0.2374 C   0  0  0  0  0  0  0  0  0  0  0  0
    4.2280    1.2982    0.9994 C   0  0  2  0  0  0  0  0  0  0  0  0
    5.7251    0.8751    1.6289 C   0  0  0  0  0  0  0  0  0  0  0  0
    6.4716    0.6284    0.4092 N   0  0  0  0  0  0  0  0  0  0  0  0
    7.1798    1.4811   -0.2976 N   0  0  0  0  0  0  0  0  0  0  0  0
    7.7243    0.8594   -1.3704 C   0  0  0  0  0  0  0  0  0  0  0  0
    7.3089   -0.4241   -1.2803 N   0  0  0  0  0  0  0  0  0  0  0  0
    6.5594   -0.5344   -0.2041 N   0  0  0  0  0  0  0  0  0  0  0  0
    3.4678    0.7864    2.2961 N   0  0  0  0  0  0  0  0  0  0  0  0
    2.1283    0.3501    2.0061 C   0  0  0  0  0  0  0  0  0  0  0  0
    1.3802   -0.1048    3.0123 N   0  0  0  0  0  0  0  0  0  0  0  0
    0.1220   -0.5375    2.8664 C   0  0  0  0  0  0  0  0  0  0  0  0
   -0.4305   -0.5103    1.6004 C   0  0  0  0  0  0  0  0  0  0  0  0
   -1.7211   -0.9425    1.3861 C   0  0  0  0  0  0  0  0  0  0  0  0
   -2.2444   -0.9050    0.1226 C   0  0  0  0  0  0  0  0  0  0  0  0
   -3.5266   -1.3354   -0.0851 O   0  0  0  0  0  0  0  0  0  0  0  0
   -4.5414   -0.5451   -0.5943 C   0  0  0  0  0  0  0  0  0  0  0  0
   -4.3662    0.7760   -0.9509 C   0  0  0  0  0  0  0  0  0  0  0  0
   -5.4002    1.5367   -1.4562 C   0  0  0  0  0  0  0  0  0  0  0  0
   -6.6613    1.0034   -1.6269 C   0  0  0  0  0  0  0  0  0  0  0  0
   -7.6945    1.7385   -2.1242 F   0  0  0  0  0  0  0  0  0  0  0  0
   -6.8445   -0.3169   -1.2727 C   0  0  0  0  0  0  0  0  0  0  0  0
   -5.7998   -1.0831   -0.7629 C   0  0  0  0  0  0  0  0  0  0  0  0
   -5.9829   -2.3783   -0.4163 F   0  0  0  0  0  0  0  0  0  0  0  0
   -1.4664   -0.4320   -0.9237 C   0  0  0  0  0  0  0  0  0  0  0  0
   -1.9868   -0.4147   -2.0697 O   0  0  0  0  0  0  0  0  0  0  0  0
   -0.2103   -0.0163   -0.6876 N   0  0  0  0  0  0  0  0  0  0  0  0
    0.5907    0.4725   -1.7749 C   0  0  0  0  0  0  0  0  0  0  0  0
    0.3225   -0.0471    0.5582 C   0  0  0  0  0  0  0  0  0  0  0  0
    1.5951    0.3781    0.7749 N   0  0  0  0  0  0  0  0  0  0  0  0
  1  2  1  0
  2  3  1  0
  3  4  2  0
  3  5  1  0
  5  6  1  0
  6  7  1  1
  7  8  1  0
  8  9  1  0
  8 10  2  0
  6 11  1  0
 11 12  2  0
 11 13  1  0
 13 14  1  0
 14 15  1  0
 15 16  1  1
 15 17  1  0
 17 18  1  0
 20 19  1  6
 20 21  1  0
 21 22  1  0
 22 23  1  0
 23 24  2  0
 24 25  1  0
 25 26  2  0
 20 27  1  0
 27 28  1  0
 28 29  2  0
 29 30  1  0
 30 31  2  0
 31 32  1  0
 32 33  2  0
 33 34  1  0
 34 35  1  0
 35 36  2  0
 36 37  1  0
 37 38  2  0
 38 39  1  0
 38 40  1  0
 40 41  2  0
 41 42  1  0
 33 43  1  0
 43 44  2  0
 43 45  1  0
 45 46  1  0
 45 47  1  0
 47 48  2  0
 26 22  1  0
 48 28  1  0
 47 31  1  0
 41 35  1  0
M  RAD  1   9   2
M  END

