
     RDKit          3D

 45 47  0  0  0  0  0  0  0  0999 V2000
    4.6997   -1.2648    1.2246 C   0  0  0  0  0  0  0  0  0  0  0  0
    3.2349   -1.2882    0.8383 C   0  0  0  0  0  0  0  0  0  0  0  0
    2.4611   -0.7542    2.0307 C   0  0  0  0  0  0  0  0  0  0  0  0
    2.9921   -0.3893   -0.3583 C   0  0  0  0  0  0  0  0  0  0  0  0
    1.5728   -0.4111   -0.7338 C   0  0  0  0  0  0  0  0  0  0  0  0
    0.7651   -1.1142   -0.0807 O   0  0  0  0  0  0  0  0  0  0  0  0
    1.1390    0.3760   -1.8447 N   0  0  0  0  0  0  0  0  0  0  0  0
   -0.2711    0.3272   -2.1835 C   0  0  0  0  0  0  0  0  0  0  0  0
   -1.0889    0.8107   -0.9994 C   0  0  0  0  0  0  0  0  0  0  0  0
   -0.5334    1.1728    0.0581 O   0  0  0  0  0  0  0  0  0  0  0  0
   -2.4675    0.8740   -1.0301 N   0  0  0  0  0  0  0  0  0  0  0  0
   -3.4881    1.2209   -0.2228 C   0  0  0  0  0  0  0  0  0  0  0  0
   -3.6471    0.3348    1.1331 C   0  0  1  0  0  0  0  0  0  0  0  0
   -3.0638   -1.0901    0.4545 C   0  0  0  0  0  0  0  0  0  0  0  0
   -2.3050    0.7053    1.7142 O   0  0  0  0  0  0  0  0  0  0  0  0
    6.3802   -0.0694   -1.9280 C   0  0  0  0  0  0  0  0  0  0  0  0
    4.9553    0.2786   -1.1105 C   0  0  2  0  0  0  0  0  0  0  0  0
    5.3556   -0.7875    0.0682 C   0  0  0  0  0  0  0  0  0  0  0  0
    4.2681   -0.7291    0.9985 N   0  0  0  0  0  0  0  0  0  0  0  0
    4.2557    0.1573    2.0090 N   0  0  0  0  0  0  0  0  0  0  0  0
    3.1538   -0.0191    2.7300 C   0  0  0  0  0  0  0  0  0  0  0  0
    2.4616   -1.0190    2.1797 N   0  0  0  0  0  0  0  0  0  0  0  0
    3.1601   -1.4250    1.1383 N   0  0  0  0  0  0  0  0  0  0  0  0
    4.1418   -0.7568   -1.9515 N   0  0  0  0  0  0  0  0  0  0  0  0
    2.7468   -0.5377   -1.8277 C   0  0  0  0  0  0  0  0  0  0  0  0
    1.9746   -1.4271   -2.5256 N   0  0  0  0  0  0  0  0  0  0  0  0
    0.6554   -1.3312   -2.5236 C   0  0  0  0  0  0  0  0  0  0  0  0
    0.0317   -0.3323   -1.8177 C   0  0  0  0  0  0  0  0  0  0  0  0
   -1.3457   -0.2499   -1.8287 C   0  0  0  0  0  0  0  0  0  0  0  0
   -1.9407    0.7511   -1.1198 C   0  0  0  0  0  0  0  0  0  0  0  0
   -3.3304    0.8246   -1.1380 O   0  0  0  0  0  0  0  0  0  0  0  0
   -4.0639    0.7262    0.0487 C   0  0  0  0  0  0  0  0  0  0  0  0
   -4.8708    1.7696    0.4250 C   0  0  0  0  0  0  0  0  0  0  0  0
   -5.6080    1.7103    1.5859 C   0  0  0  0  0  0  0  0  0  0  0  0
   -5.5459    0.6116    2.3784 C   0  0  0  0  0  0  0  0  0  0  0  0
   -6.2758    0.5587    3.5230 F   0  0  0  0  0  0  0  0  0  0  0  0
   -4.7240   -0.4425    1.9879 C   0  0  0  0  0  0  0  0  0  0  0  0
   -3.9798   -0.4134    0.8410 C   0  0  0  0  0  0  0  0  0  0  0  0
   -3.1760   -1.4311    0.4484 F   0  0  0  0  0  0  0  0  0  0  0  0
   -1.1440    1.6306   -0.4280 C   0  0  0  0  0  0  0  0  0  0  0  0
   -1.7307    2.5492    0.2204 O   0  0  0  0  0  0  0  0  0  0  0  0
    0.1906    1.5245   -0.4368 N   0  0  0  0  0  0  0  0  0  0  0  0
    0.9898    2.4668    0.3016 C   0  0  0  0  0  0  0  0  0  0  0  0
    0.8382    0.5478   -1.1250 C   0  0  0  0  0  0  0  0  0  0  0  0
    2.1763    0.4561   -1.1229 N   0  0  0  0  0  0  0  0  0  0  0  0
  1  2  1  0
  2  3  1  0
  2  4  1  0
  4  5  1  0
  5  6  2  0
  5  7  1  0
  7  8  1  0
  8  9  1  0
  9 10  2  0
  9 11  1  0
 11 12  1  0
 12 13  1  0
 13 14  1  6
 13 15  1  0
 17 16  1  6
 17 18  1  0
 18 19  1  0
 19 20  1  0
 20 21  2  0
 21 22  1  0
 22 23  2  0
 17 24  1  0
 24 25  1  0
 25 26  2  0
 26 27  1  0
 27 28  2  0
 28 29  1  0
 29 30  2  0
 30 31  1  0
 31 32  1  0
 32 33  2  0
 33 34  1  0
 34 35  2  0
 35 36  1  0
 35 37  1  0
 37 38  2  0
 38 39  1  0
 30 40  1  0
 40 41  2  0
 40 42  1  0
 42 43  1  0
 42 44  1  0
 44 45  2  0
 23 19  1  0
 45 25  1  0
 44 28  1  0
 38 32  1  0
M  END

