
     RDKit          3D

 50 52  0  0  0  0  0  0  0  0999 V2000
   -5.2342    2.3753    1.3585 C   0  0  0  0  0  0  0  0  0  0  0  0
   -4.6886    1.4968    0.2536 C   0  0  0  0  0  0  0  0  0  0  0  0
   -3.3932    2.0010   -0.2824 C   0  0  0  0  0  0  0  0  0  0  0  0
   -4.6595    0.0793    0.7395 C   0  0  0  0  0  0  0  0  0  0  0  0
   -4.1447   -0.9054   -0.2447 C   0  0  0  0  0  0  0  0  0  0  0  0
   -2.8207   -0.7104   -0.7023 N   0  0  0  0  0  0  0  0  0  0  0  0
   -1.7274   -0.7195    0.1980 C   0  0  0  0  0  0  0  0  0  0  0  0
   -1.8200   -0.8835    1.3697 O   0  0  0  0  0  0  0  0  0  0  0  0
   -0.3249   -0.4766   -0.5722 C   0  0  2  0  0  0  0  0  0  0  0  0
   -0.0758   -2.1206   -0.8722 C   0  0  0  0  0  0  0  0  0  0  0  0
   -0.8214   -2.2901   -2.0515 O   0  0  0  0  0  0  0  0  0  0  0  0
    0.5616   -0.5143    0.7368 N   0  0  0  0  0  0  0  0  0  0  0  0
    1.9292   -0.7358    0.3899 C   0  0  0  0  0  0  0  0  0  0  0  0
    2.2921   -0.8702   -0.7965 O   0  0  0  0  0  0  0  0  0  0  0  0
    2.9973   -0.8172    1.4408 C   0  0  0  0  0  0  0  0  0  0  0  0
    4.3435   -1.1185    0.8436 C   0  0  0  0  0  0  0  0  0  0  0  0
    4.8467   -0.0969   -0.1335 C   0  0  0  0  0  0  0  0  0  0  0  0
    5.0365    1.2774    0.4243 C   0  0  0  0  0  0  0  0  0  0  0  0
    3.7447    1.8440    0.9655 C   0  0  0  0  0  0  0  0  0  0  0  0
    3.9590    3.1852    1.5064 N   0  0  0  0  0  4  0  0  0  0  0  0
    3.9894    0.5773   -0.4696 C   0  0  0  0  0  0  0  0  0  0  0  0
    4.3776   -0.3863    0.8270 C   0  0  2  0  0  0  0  0  0  0  0  0
    5.6104   -1.1271   -0.0075 C   0  0  0  0  0  0  0  0  0  0  0  0
    6.5100   -0.0433   -0.3530 N   0  0  0  0  0  0  0  0  0  0  0  0
    6.5025    0.7206   -1.4483 N   0  0  0  0  0  0  0  0  0  0  0  0
    7.5317    1.5716   -1.2910 C   0  0  0  0  0  0  0  0  0  0  0  0
    8.1501    1.3263   -0.1213 N   0  0  0  0  0  0  0  0  0  0  0  0
    7.5040    0.3310    0.4350 N   0  0  0  0  0  0  0  0  0  0  0  0
    3.3372   -1.5132    0.4270 N   0  0  0  0  0  0  0  0  0  0  0  0
    1.9943   -1.0448    0.3849 C   0  0  0  0  0  0  0  0  0  0  0  0
    1.5983    0.2025    0.6460 N   0  0  0  0  0  0  0  0  0  0  0  0
    0.3151    0.6049    0.5946 C   0  0  0  0  0  0  0  0  0  0  0  0
   -0.6665   -0.3135    0.2528 C   0  0  0  0  0  0  0  0  0  0  0  0
   -1.9911    0.0026    0.1753 C   0  0  0  0  0  0  0  0  0  0  0  0
   -2.8733   -0.9968   -0.1749 C   0  0  0  0  0  0  0  0  0  0  0  0
   -4.2333   -0.7428   -0.2719 O   0  0  0  0  0  0  0  0  0  0  0  0
   -4.7202    0.5317   -0.0147 C   0  0  0  0  0  0  0  0  0  0  0  0
   -5.6290    0.6947    1.0010 C   0  0  0  0  0  0  0  0  0  0  0  0
   -6.1186    1.9478    1.2666 C   0  0  0  0  0  0  0  0  0  0  0  0
   -5.7169    3.0528    0.5332 C   0  0  0  0  0  0  0  0  0  0  0  0
   -6.2016    4.2846    0.7982 F   0  0  0  0  0  0  0  0  0  0  0  0
   -4.7968    2.8398   -0.4835 C   0  0  0  0  0  0  0  0  0  0  0  0
   -4.2883    1.5910   -0.7720 C   0  0  0  0  0  0  0  0  0  0  0  0
   -3.3903    1.3728   -1.7619 F   0  0  0  0  0  0  0  0  0  0  0  0
   -2.4516   -2.2769   -0.4411 C   0  0  0  0  0  0  0  0  0  0  0  0
   -3.2613   -3.2045   -0.7651 O   0  0  0  0  0  0  0  0  0  0  0  0
   -1.1573   -2.5543   -0.3576 N   0  0  0  0  0  0  0  0  0  0  0  0
   -0.7071   -3.9054   -0.6380 C   0  0  0  0  0  0  0  0  0  0  0  0
   -0.2727   -1.6076   -0.0202 C   0  0  0  0  0  0  0  0  0  0  0  0
    1.0551   -1.9358    0.0548 N   0  0  0  0  0  0  0  0  0  0  0  0
  1  2  1  0
  2  3  1  0
  2  4  1  0
  4  5  1  0
  5  6  1  0
  6  7  1  0
  7  8  2  0
  7  9  1  0
  9 10  1  6
 10 11  1  0
  9 12  1  0
 12 13  1  0
 13 14  2  0
 13 15  1  0
 15 16  1  0
 16 17  1  0
 17 18  1  0
 18 19  1  0
 19 20  1  0
 22 21  1  6
 22 23  1  0
 23 24  1  0
 24 25  1  0
 25 26  2  0
 26 27  1  0
 27 28  2  0
 22 29  1  0
 29 30  1  0
 30 31  2  0
 31 32  1  0
 32 33  2  0
 33 34  1  0
 34 35  2  0
 35 36  1  0
 36 37  1  0
 37 38  2  0
 38 39  1  0
 39 40  2  0
 40 41  1  0
 40 42  1  0
 42 43  2  0
 43 44  1  0
 35 45  1  0
 45 46  2  0
 45 47  1  0
 47 48  1  0
 47 49  1  0
 49 50  2  0
 28 24  1  0
 50 30  1  0
 49 33  1  0
 43 37  1  0
M  CHG  1  20   1
M  END

