
     RDKit          3D

 26 26  0  0  0  0  0  0  0  0999 V2000
   -3.9686   -3.8749    2.6765 C   0  0  0  0  0  0  0  0  0  0  0  0
   -4.7696   -3.6930    1.4046 C   0  0  0  0  0  0  0  0  0  0  0  0
   -5.4335   -4.9421    0.9235 C   0  0  0  0  0  0  0  0  0  0  0  0
   -3.9990   -2.9603    0.3337 C   0  0  0  0  0  0  0  0  0  0  0  0
   -3.6234   -1.6038    0.8521 C   0  0  0  0  0  0  0  0  0  0  0  0
   -2.8559   -0.8368   -0.1593 C   0  0  0  0  0  0  0  0  0  0  0  0
   -2.6278   -1.4056   -1.2595 O   0  0  0  0  0  0  0  0  0  0  0  0
   -2.3848    0.4791    0.0655 N   0  0  0  0  0  0  0  0  0  0  0  0
   -1.5942    1.0517   -1.1832 C   0  0  1  0  0  0  0  0  0  0  0  0
   -1.7444    2.6384   -0.6263 C   0  0  0  0  0  0  0  0  0  0  0  0
   -3.2739    2.7800   -0.5849 C   0  0  0  0  0  0  0  0  0  0  0  0
   -3.5985    4.1453   -0.1001 C   0  0  0  0  0  0  0  0  0  0  0  0
   -3.0185    4.3051    1.2777 C   0  0  0  0  0  0  0  0  0  0  0  0
   -3.2863    5.6113    1.8160 N   0  0  0  0  0  4  0  0  0  0  0  0
   -0.1281    0.8757   -0.5984 C   0  0  0  0  0  0  0  0  0  0  0  0
    0.1220    0.4318    0.4937 O   0  0  0  0  0  0  0  0  0  0  0  0
    0.8920    1.2828   -1.4621 N   0  0  0  0  0  0  0  0  0  0  0  0
    2.3205    1.2046   -1.1086 C   0  0  0  0  0  0  0  0  0  0  0  0
    2.6360   -0.2622   -0.8255 C   0  0  0  0  0  0  0  0  0  0  0  0
    4.0358   -0.4773   -0.4655 C   0  0  0  0  0  0  0  0  0  0  0  0
    4.4706   -0.4367    0.8217 C   0  0  0  0  0  0  0  0  0  0  0  0
    5.7930   -0.6416    1.1374 C   0  0  0  0  0  0  0  0  0  0  0  0
    6.7302   -0.8971    0.1608 C   0  0  0  0  0  0  0  0  0  0  0  0
    8.0763   -1.1070    0.4756 O   0  0  0  0  0  0  0  0  0  0  0  0
    6.2765   -0.9371   -1.1579 C   0  0  0  0  0  0  0  0  0  0  0  0
    4.9537   -0.7302   -1.4605 C   0  0  0  0  0  0  0  0  0  0  0  0
  1  2  1  0
  2  3  1  0
  2  4  1  0
  4  5  1  0
  5  6  1  0
  6  7  2  0
  6  8  1  0
  8  9  1  0
  9 10  1  1
 10 11  1  0
 11 12  1  0
 12 13  1  0
 13 14  1  0
  9 15  1  0
 15 16  2  0
 15 17  1  0
 17 18  1  0
 18 19  1  0
 19 20  1  0
 20 21  2  0
 21 22  1  0
 22 23  2  0
 23 24  1  0
 23 25  1  0
 25 26  2  0
 26 20  1  0
M  CHG  1  14   1
M  END

