
     RDKit          3D

 20 19  0  0  0  0  0  0  0  0999 V2000
   -2.6932    4.4427   -0.6386 N   0  0  0  0  0  0  0  0  0  0  0  0
   -1.5975    3.6870    0.0074 C   0  0  0  0  0  0  0  0  0  0  0  0
   -0.6636    4.3148    0.5234 O   0  0  0  0  0  0  0  0  0  0  0  0
   -1.7508    2.2008   -0.0187 C   0  0  0  0  0  0  0  0  0  0  0  0
   -0.4850    1.5093    0.0407 C   0  0  0  0  0  0  0  0  0  0  0  0
   -0.5816    0.0659    0.2552 C   0  0  2  0  0  0  0  0  0  0  0  0
    0.5710   -0.6989    0.1683 N   0  0  0  0  0  0  0  0  0  0  0  0
    1.7907   -0.7016    0.8557 C   0  0  0  0  0  0  0  0  0  0  0  0
    2.0216    0.1480    1.7068 O   0  0  0  0  0  0  0  0  0  0  0  0
    2.8342   -1.7488    0.5603 C   0  0  0  0  0  0  0  0  0  0  0  0
    4.1513   -1.4103    0.9498 C   0  0  0  0  0  0  0  0  0  0  0  0
    4.6732   -0.3135    0.1072 C   0  0  0  0  0  0  0  0  0  0  0  0
    5.0205   -0.7094   -1.1803 O   0  0  0  0  0  1  0  0  0  0  0  0
    4.7738    0.8527    0.5469 O   0  0  0  0  0  0  0  0  0  0  0  0
   -1.7227   -0.5759   -0.4748 C   0  0  0  0  0  0  0  0  0  0  0  0
   -2.4326    0.2137   -1.1228 O   0  0  0  0  0  0  0  0  0  0  0  0
   -1.9109   -1.9243   -0.4178 N   0  0  0  0  0  0  0  0  0  0  0  0
   -2.7948   -2.8497   -0.9098 C   0  0  0  0  0  0  0  0  0  0  0  0
   -4.1291   -2.8207   -0.2631 C   0  0  0  0  0  0  0  0  0  0  0  0
   -5.0744   -3.6818   -0.6958 O   0  0  0  0  0  0  0  0  0  0  0  0
  1  2  1  0
  2  3  2  0
  2  4  1  0
  4  5  1  0
  6  5  1  6
  6  7  1  0
  7  8  1  0
  8  9  2  0
  8 10  1  0
 10 11  1  0
 11 12  1  0
 12 13  1  0
 12 14  2  0
  6 15  1  0
 15 16  2  0
 15 17  1  0
 17 18  1  0
 18 19  1  0
 19 20  1  0
M  RAD  1  13   2
M  END

