
     RDKit          3D

 47 49  0  0  0  0  0  0  0  0999 V2000
    5.4604   -0.6002    0.4790 C   0  0  0  0  0  0  0  0  0  0  0  0
    4.3678    0.2458    1.0836 C   0  0  0  0  0  0  0  0  0  0  0  0
    3.1652    0.1223    0.2295 C   0  0  0  0  0  0  0  0  0  0  0  0
    3.1883   -0.6022   -0.8273 O   0  0  0  0  0  0  0  0  0  0  0  0
    1.9682    0.7780    0.5259 N   0  0  0  0  0  0  0  0  0  0  0  0
    0.8182    0.5219   -0.4911 C   0  0  1  0  0  0  0  0  0  0  0  0
    0.7711   -1.0864   -0.2211 C   0  0  0  0  0  0  0  0  0  0  0  0
   -0.2758   -1.6133   -1.1189 C   0  0  0  0  0  0  0  0  0  0  0  0
   -0.9888   -0.9097   -2.0971 N   0  0  0  0  0  0  0  0  0  0  0  0
   -0.5575   -2.8338   -0.9905 O   0  0  0  0  0  0  0  0  0  0  0  0
   -0.3646    0.8546    0.5160 C   0  0  0  0  0  0  0  0  0  0  0  0
   -0.1759    1.1713    1.6793 O   0  0  0  0  0  0  0  0  0  0  0  0
   -1.6631    0.7400   -0.1009 N   0  0  0  0  0  0  0  0  0  0  0  0
   -2.7803    1.0187    0.7206 C   0  0  0  0  0  0  0  0  0  0  0  0
   -4.1133    0.8927    0.0458 C   0  0  0  0  0  0  0  0  0  0  0  0
   -4.2807    1.8146   -1.1262 C   0  0  0  0  0  0  0  0  0  0  0  0
   -4.5395   -0.5142   -0.2383 C   0  0  0  0  0  0  0  0  0  0  0  0
   -3.5374    1.7843    1.8813 C   0  0  0  0  0  0  0  0  0  0  0  0
   -4.3052    0.3688    1.5144 C   0  0  1  0  0  0  0  0  0  0  0  0
   -5.6998    1.1672    1.0778 C   0  0  0  0  0  0  0  0  0  0  0  0
   -6.6217    0.1377    0.6829 N   0  0  0  0  0  0  0  0  0  0  0  0
   -7.4384   -0.4285    1.5574 N   0  0  0  0  0  0  0  0  0  0  0  0
   -8.1740   -1.3351    0.9408 C   0  0  0  0  0  0  0  0  0  0  0  0
   -7.8127   -1.3388   -0.3465 N   0  0  0  0  0  0  0  0  0  0  0  0
   -6.8634   -0.4276   -0.4669 N   0  0  0  0  0  0  0  0  0  0  0  0
   -3.7224    0.3249    0.0541 N   0  0  0  0  0  0  0  0  0  0  0  0
   -2.3046    0.2699    0.0795 C   0  0  0  0  0  0  0  0  0  0  0  0
   -1.5675    0.2575    1.2021 N   0  0  0  0  0  0  0  0  0  0  0  0
   -0.2416    0.2063    1.2408 C   0  0  0  0  0  0  0  0  0  0  0  0
    0.4612    0.1619    0.0747 C   0  0  0  0  0  0  0  0  0  0  0  0
    1.8376    0.1080    0.0580 C   0  0  0  0  0  0  0  0  0  0  0  0
    2.4930    0.0648   -1.1547 C   0  0  0  0  0  0  0  0  0  0  0  0
    3.8850    0.0089   -1.2628 O   0  0  0  0  0  0  0  0  0  0  0  0
    4.7244   -0.0082   -0.1818 C   0  0  0  0  0  0  0  0  0  0  0  0
    4.1879    0.0314    1.1024 C   0  0  0  0  0  0  0  0  0  0  0  0
    5.0999    0.0108    2.1334 C   0  0  0  0  0  0  0  0  0  0  0  0
    6.4606   -0.0449    1.9547 C   0  0  0  0  0  0  0  0  0  0  0  0
    7.3252   -0.0636    2.9886 F   0  0  0  0  0  0  0  0  0  0  0  0
    6.9322   -0.0820    0.6666 C   0  0  0  0  0  0  0  0  0  0  0  0
    6.0814   -0.0646   -0.4161 C   0  0  0  0  0  0  0  0  0  0  0  0
    6.5762   -0.1021   -1.6683 F   0  0  0  0  0  0  0  0  0  0  0  0
    1.7220    0.0782   -2.2979 C   0  0  0  0  0  0  0  0  0  0  0  0
    2.3221    0.0388   -3.3964 O   0  0  0  0  0  0  0  0  0  0  0  0
    0.3919    0.1300   -2.3071 N   0  0  0  0  0  0  0  0  0  0  0  0
   -0.3944    0.1428   -3.5411 C   0  0  0  0  0  0  0  0  0  0  0  0
   -0.2375    0.1721   -1.1017 C   0  0  0  0  0  0  0  0  0  0  0  0
   -1.5800    0.2250   -1.0680 N   0  0  0  0  0  0  0  0  0  0  0  0
  1  2  1  0
  2  3  1  0
  3  4  2  0
  3  5  1  0
  5  6  1  0
  6  7  1  1
  7  8  1  0
  8  9  1  0
  8 10  2  0
  6 11  1  0
 11 12  2  0
 11 13  1  0
 13 14  1  0
 14 15  1  0
 15 16  1  0
 15 17  1  0
 19 18  1  6
 19 20  1  0
 20 21  1  0
 21 22  1  0
 22 23  2  0
 23 24  1  0
 24 25  2  0
 19 26  1  0
 26 27  1  0
 27 28  2  0
 28 29  1  0
 29 30  2  0
 30 31  1  0
 31 32  2  0
 32 33  1  0
 33 34  1  0
 34 35  2  0
 35 36  1  0
 36 37  2  0
 37 38  1  0
 37 39  1  0
 39 40  2  0
 40 41  1  0
 32 42  1  0
 42 43  2  0
 42 44  1  0
 44 45  1  0
 44 46  1  0
 46 47  2  0
 25 21  1  0
 47 27  1  0
 46 30  1  0
 40 34  1  0
M  END

