
     RDKit          3D

 20 19  0  0  0  0  0  0  0  0999 V2000
   -4.6894    0.9298    3.8479 C   0  0  0  0  0  0  0  0  0  0  0  0
   -4.1867    1.1597    2.4627 C   0  0  0  0  0  0  0  0  0  0  0  0
   -4.0066    2.6099    2.1675 C   0  0  0  0  0  0  0  0  0  0  0  0
   -2.9735    0.3098    2.2082 C   0  0  0  0  0  0  0  0  0  0  0  0
   -2.5335    0.5785    0.8526 N   0  0  0  0  0  0  0  0  0  0  0  0
   -1.3795   -0.1580    0.4466 C   0  0  0  0  0  0  0  0  0  0  0  0
   -0.8115   -0.9469    1.1700 O   0  0  0  0  0  0  0  0  0  0  0  0
   -0.9276    0.1652   -1.0344 C   0  0  1  0  0  0  0  0  0  0  0  0
    0.2891   -0.7764   -1.1161 N   0  0  0  0  0  0  0  0  0  0  0  0
    1.3978   -0.6056   -0.2884 C   0  0  0  0  0  0  0  0  0  0  0  0
    1.3806    0.3486    0.5326 O   0  0  0  0  0  0  0  0  0  0  0  0
    2.5288   -1.5619   -0.4281 C   0  0  0  0  0  0  0  0  0  0  0  0
    3.6288   -1.2392    0.5623 C   0  0  0  0  0  0  0  0  0  0  0  0
    4.1055    0.1743    0.2662 C   0  0  0  0  0  0  0  0  0  0  0  0
    4.6084    0.2489   -1.1075 C   0  0  0  0  0  0  0  0  0  0  0  0
    5.1202    1.4655   -1.6076 N   0  0  0  0  0  0  0  0  0  0  0  0
    4.6014   -0.7602   -1.8799 O   0  0  0  0  0  0  0  0  0  0  0  0
   -1.9593   -1.0002   -1.7372 C   0  0  1  0  0  0  0  0  0  0  0  0
   -3.0301    0.0972   -2.3137 C   0  0  0  0  0  0  0  0  0  0  0  0
   -1.1629   -1.0390   -3.0037 O   0  0  0  0  0  0  0  0  0  0  0  0
  1  2  1  0
  2  3  1  0
  2  4  1  0
  4  5  1  0
  5  6  1  0
  6  7  2  0
  6  8  1  0
  8  9  1  1
  9 10  1  0
 10 11  2  0
 10 12  1  0
 12 13  1  0
 13 14  1  0
 14 15  1  0
 15 16  1  0
 15 17  2  0
  8 18  1  0
 18 19  1  6
 18 20  1  0
M  END

