
     RDKit          3D

 49 52  0  0  0  0  0  0  0  0999 V2000
    5.8301   -0.4256   -1.0317 C   0  0  0  0  0  0  0  0  0  0  0  0
    4.3282    0.2745   -1.1229 C   0  0  2  0  0  0  0  0  0  0  0  0
    4.5351    1.0996    0.3044 C   0  0  0  0  0  0  0  0  0  0  0  0
    5.7005    1.9354    0.0569 N   0  0  0  0  0  0  0  0  0  0  0  0
    6.9455    1.5649    0.2973 N   0  0  0  0  0  0  0  0  0  0  0  0
    7.7805    2.5586   -0.0378 C   0  0  0  0  0  0  0  0  0  0  0  0
    7.0217    3.5640   -0.4959 N   0  0  0  0  0  0  0  0  0  0  0  0
    5.7791    3.1474   -0.4216 N   0  0  0  0  0  0  0  0  0  0  0  0
    3.6236   -0.9525   -0.4028 N   0  0  0  0  0  0  0  0  0  0  0  0
    2.2098   -0.7542   -0.2626 C   0  0  0  0  0  0  0  0  0  0  0  0
    1.5509    0.3174   -0.6775 N   0  0  0  0  0  0  0  0  0  0  0  0
    0.2408    0.4881   -0.5412 C   0  0  0  0  0  0  0  0  0  0  0  0
   -0.4694   -0.5562    0.0902 C   0  0  0  0  0  0  0  0  0  0  0  0
   -1.8304   -0.4345    0.2590 C   0  0  0  0  0  0  0  0  0  0  0  0
   -2.5378   -1.4316    0.8669 C   0  0  0  0  0  0  0  0  0  0  0  0
   -3.9117   -1.3527    1.0589 O   0  0  0  0  0  0  0  0  0  0  0  0
   -4.7009   -0.3022    0.6762 C   0  0  0  0  0  0  0  0  0  0  0  0
   -5.4614    0.4583    1.5443 C   0  0  0  0  0  0  0  0  0  0  0  0
   -6.2405    1.5145    1.0734 C   0  0  0  0  0  0  0  0  0  0  0  0
   -6.2794    1.8350   -0.2644 C   0  0  0  0  0  0  0  0  0  0  0  0
   -7.0360    2.8650   -0.7432 F   0  0  0  0  0  0  0  0  0  0  0  0
   -5.5305    1.0885   -1.1310 C   0  0  0  0  0  0  0  0  0  0  0  0
   -4.7544    0.0353   -0.6562 C   0  0  0  0  0  0  0  0  0  0  0  0
   -4.0389   -0.6678   -1.5334 F   0  0  0  0  0  0  0  0  0  0  0  0
   -1.8182   -2.5293    1.2844 C   0  0  0  0  0  0  0  0  0  0  0  0
   -2.4395   -3.4857    1.8578 O   0  0  0  0  0  0  0  0  0  0  0  0
   -0.4903   -2.6483    1.1197 N   0  0  0  0  0  0  0  0  0  0  0  0
    0.2498   -3.8132    1.5667 C   0  0  0  0  0  0  0  0  0  0  0  0
    0.2118   -1.6628    0.5185 C   0  0  0  0  0  0  0  0  0  0  0  0
    1.5320   -1.7300    0.3298 N   0  0  0  0  0  0  0  0  0  0  0  0
   -6.3955   -1.6104    1.6088 N   0  0  0  0  0  4  0  0  0  0  0  0
   -5.4822   -0.8753    0.7795 C   0  0  0  0  0  0  0  0  0  0  0  0
   -5.1666    0.4280    1.4431 C   0  0  0  0  0  0  0  0  0  0  0  0
   -4.2001    1.2139    0.5725 C   0  0  0  0  0  0  0  0  0  0  0  0
   -2.9528    0.3683    0.4264 C   0  0  0  0  0  0  0  0  0  0  0  0
   -1.9855    1.1204   -0.4269 C   0  0  0  0  0  0  0  0  0  0  0  0
   -0.7111    0.3849   -0.6438 C   0  0  0  0  0  0  0  0  0  0  0  0
   -0.5640   -0.7527   -0.1154 O   0  0  0  0  0  0  0  0  0  0  0  0
    0.2880    1.0015   -1.4412 N   0  0  0  0  0  0  0  0  0  0  0  0
    0.2489    2.2322   -2.0859 C   0  0  0  0  0  0  0  0  0  0  0  0
    1.5987    2.4753   -2.6479 C   0  0  0  0  0  0  0  0  0  0  0  0
    2.5448    1.5705   -1.9761 C   0  0  0  0  0  0  0  0  0  0  0  0
    1.6116    0.2560   -1.6706 C   0  0  1  0  0  0  0  0  0  0  0  0
    2.0844    0.1120   -0.1662 C   0  0  0  0  0  0  0  0  0  0  0  0
    1.4504    0.6306    0.7404 O   0  0  0  0  0  0  0  0  0  0  0  0
    3.2463   -0.6226    0.1093 N   0  0  0  0  0  0  0  0  0  0  0  0
    3.7897   -0.8329    1.4361 C   0  0  0  0  0  0  0  0  0  0  0  0
    5.0483   -1.6666    1.3946 C   0  0  0  0  0  0  0  0  0  0  0  0
    5.5466   -1.8536    2.6634 O   0  0  0  0  0  0  0  0  0  0  0  0
  2  1  1  1
  2  3  1  0
  3  4  1  0
  4  5  1  0
  5  6  2  0
  6  7  1  0
  7  8  2  0
  2  9  1  0
  9 10  1  0
 10 11  2  0
 11 12  1  0
 12 13  2  0
 13 14  1  0
 14 15  2  0
 15 16  1  0
 16 17  1  0
 17 18  2  0
 18 19  1  0
 19 20  2  0
 20 21  1  0
 20 22  1  0
 22 23  2  0
 23 24  1  0
 15 25  1  0
 25 26  2  0
 25 27  1  0
 27 28  1  0
 27 29  1  0
 29 30  2  0
 31 32  1  0
 32 33  1  0
 33 34  1  0
 34 35  1  0
 35 36  1  0
 36 37  1  0
 37 38  2  0
 37 39  1  0
 39 40  1  0
 40 41  1  0
 41 42  1  0
 42 43  1  0
 43 44  1  1
 44 45  2  0
 44 46  1  0
 46 47  1  0
 47 48  1  0
 48 49  1  0
  8  4  1  0
 30 10  1  0
 43 39  1  0
 29 13  1  0
 23 17  1  0
M  CHG  1  31   1
M  END

