
     RDKit          3D

 23 24  0  0  0  0  0  0  0  0999 V2000
   -1.7373   -3.5572   -1.1176 C   0  0  0  0  0  0  0  0  0  0  0  0
   -1.9815   -1.9207   -1.0386 C   0  0  1  0  0  0  0  0  0  0  0  0
   -3.4494   -2.0739   -0.7765 O   0  0  0  0  0  0  0  0  0  0  0  0
   -1.5895   -1.8885    0.6191 C   0  0  2  0  0  0  0  0  0  0  0  0
   -2.3954   -0.6561    0.9848 N   0  0  0  0  0  0  0  0  0  0  0  0
   -2.5565    0.3736    0.1319 C   0  0  0  0  0  0  0  0  0  0  0  0
   -2.0839    0.4081   -0.9928 O   0  0  0  0  0  0  0  0  0  0  0  0
   -3.3848    1.6576    0.5148 C   0  0  2  0  0  0  0  0  0  0  0  0
   -4.7948    1.0284   -0.0885 C   0  0  0  0  0  0  0  0  0  0  0  0
   -5.4619    2.2947   -0.5817 C   0  0  0  0  0  0  0  0  0  0  0  0
   -4.3554    3.3391   -0.5630 C   0  0  0  0  0  0  0  0  0  0  0  0
   -3.1942    2.4927   -0.7810 N   0  0  0  0  0  0  0  0  0  0  0  0
   -0.1979   -1.1939    0.4047 C   0  0  0  0  0  0  0  0  0  0  0  0
   -0.1133    0.0038    0.6077 O   0  0  0  0  0  0  0  0  0  0  0  0
    0.8753   -1.8809    0.0095 N   0  0  0  0  0  0  0  0  0  0  0  0
    2.1531   -1.2485   -0.1916 C   0  0  0  0  0  0  0  0  0  0  0  0
    2.7762   -0.5796    0.9664 C   0  0  0  0  0  0  0  0  0  0  0  0
    4.0724    0.0172    0.5382 C   0  0  0  0  0  0  0  0  0  0  0  0
    4.0957    1.3198    0.0718 C   0  0  0  0  0  0  0  0  0  0  0  0
    5.2847    1.8680   -0.3216 C   0  0  0  0  0  0  0  0  0  0  0  0
    6.4162    1.1230   -0.2477 C   0  0  0  0  0  0  0  0  0  0  0  0
    6.4086   -0.1786    0.2151 C   0  0  0  0  0  0  0  0  0  0  0  0
    5.2134   -0.7483    0.6180 C   0  0  0  0  0  0  0  0  0  0  0  0
  2  1  1  6
  2  3  1  0
  2  4  1  0
  4  5  1  1
  5  6  1  0
  6  7  2  0
  8  6  1  6
  8  9  1  0
  9 10  1  0
 10 11  1  0
 11 12  1  0
  4 13  1  0
 13 14  2  0
 13 15  1  0
 15 16  1  0
 16 17  1  0
 17 18  1  0
 18 19  2  0
 19 20  1  0
 20 21  2  0
 21 22  1  0
 22 23  2  0
 12  8  1  0
 23 18  1  0
M  END

