
     RDKit          3D

 15 14  0  0  0  0  0  0  0  0999 V2000
    3.7313    2.4989    0.6039 C   0  0  0  0  0  0  0  0  0  0  0  0
    3.2499    1.1803    0.0737 C   0  0  0  0  0  0  0  0  0  0  0  0
    3.4134    0.8996   -1.1321 O   0  0  0  0  0  0  0  0  0  0  0  0
    2.6312    0.3260    0.9963 N   0  0  0  0  0  0  0  0  0  0  0  0
    2.1212   -1.0577    0.4576 C   0  0  1  0  0  0  0  0  0  0  0  0
    1.2318   -1.3820    1.8248 C   0  0  0  0  0  0  0  0  0  0  0  0
    0.8979   -0.5031   -0.3741 C   0  0  0  0  0  0  0  0  0  0  0  0
    0.7299    0.6972   -0.5034 O   0  0  0  0  0  0  0  0  0  0  0  0
    0.0173   -1.4331   -0.9492 N   0  0  0  0  0  0  0  0  0  0  0  0
   -1.1385   -1.1316   -1.7291 C   0  0  0  0  0  0  0  0  0  0  0  0
   -2.1535   -0.2747   -1.0721 C   0  0  0  0  0  0  0  0  0  0  0  0
   -2.6900   -0.8615    0.2385 C   0  0  0  0  0  0  0  0  0  0  0  0
   -3.7006    0.0531    0.8204 C   0  0  0  0  0  0  0  0  0  0  0  0
   -3.4061    1.1556    1.6284 O   0  0  0  0  0  1  0  0  0  0  0  0
   -4.9353   -0.1672    0.5743 O   0  0  0  0  0  0  0  0  0  0  0  0
  1  2  1  0
  2  3  2  0
  2  4  1  0
  4  5  1  0
  5  6  1  1
  5  7  1  0
  7  8  2  0
  7  9  1  0
  9 10  1  0
 10 11  1  0
 11 12  1  0
 12 13  1  0
 13 14  1  0
 13 15  2  0
M  RAD  1  14   2
M  END

