
     RDKit          3D

 51 54  0  0  0  0  0  0  0  0999 V2000
   -1.7387    3.6954    1.2632 C   0  0  0  0  0  0  0  0  0  0  0  0
   -1.6391    2.3162    1.8808 C   0  0  0  0  0  0  0  0  0  0  0  0
   -1.0153    1.3494    0.9462 C   0  0  0  0  0  0  0  0  0  0  0  0
   -0.6760    1.7648   -0.1750 O   0  0  0  0  0  0  0  0  0  0  0  0
   -0.8126    0.0447    1.2889 N   0  0  0  0  0  0  0  0  0  0  0  0
   -0.1733   -1.0013    0.3780 C   0  0  1  0  0  0  0  0  0  0  0  0
   -0.9951   -0.7692   -0.9841 C   0  0  0  0  0  0  0  0  0  0  0  0
   -2.3865   -1.0908   -0.5934 C   0  0  0  0  0  0  0  0  0  0  0  0
   -2.8143   -2.4084   -0.6841 C   0  0  0  0  0  0  0  0  0  0  0  0
   -4.1106   -2.6792   -0.3281 C   0  0  0  0  0  0  0  0  0  0  0  0
   -4.9827   -1.7006    0.1089 C   0  0  0  0  0  0  0  0  0  0  0  0
   -4.5101   -0.4064    0.1821 C   0  0  0  0  0  0  0  0  0  0  0  0
   -3.2157   -0.1009   -0.1680 C   0  0  0  0  0  0  0  0  0  0  0  0
    1.1672   -0.2878   -0.0233 C   0  0  0  0  0  0  0  0  0  0  0  0
    1.5359    0.7541    0.4004 O   0  0  0  0  0  0  0  0  0  0  0  0
    1.9755   -0.9803   -0.9752 N   0  0  0  0  0  0  0  0  0  0  0  0
    3.2143   -0.3288   -1.3490 C   0  0  0  0  0  0  0  0  0  0  0  0
    4.0206   -0.1838   -0.0730 C   0  0  0  0  0  0  0  0  0  0  0  0
    5.3086    0.4697   -0.3194 C   0  0  0  0  0  0  0  0  0  0  0  0
    6.2204    0.7018    0.7007 O   0  0  0  0  0  1  0  0  0  0  0  0
    5.6274    0.8413   -1.4762 O   0  0  0  0  0  0  0  0  0  0  0  0
    5.7331   -1.6302   -0.6453 C   0  0  0  0  0  0  0  0  0  0  0  0
    4.4563   -0.6232   -0.9813 C   0  0  2  0  0  0  0  0  0  0  0  0
    4.7077    0.2773    0.3934 C   0  0  0  0  0  0  0  0  0  0  0  0
    6.0675    0.7456    0.1328 N   0  0  0  0  0  0  0  0  0  0  0  0
    7.1610    0.1122    0.4989 N   0  0  0  0  0  0  0  0  0  0  0  0
    8.1992    0.8507    0.0830 C   0  0  0  0  0  0  0  0  0  0  0  0
    7.7305    1.9427   -0.5415 N   0  0  0  0  0  0  0  0  0  0  0  0
    6.4174    1.8588   -0.4999 N   0  0  0  0  0  0  0  0  0  0  0  0
    3.4133   -1.5820   -0.2653 N   0  0  0  0  0  0  0  0  0  0  0  0
    2.0849   -1.1128   -0.2932 C   0  0  0  0  0  0  0  0  0  0  0  0
    1.7127    0.0417   -0.8700 N   0  0  0  0  0  0  0  0  0  0  0  0
    0.4050    0.4338   -0.8587 C   0  0  0  0  0  0  0  0  0  0  0  0
   -0.5206   -0.3655   -0.2519 C   0  0  0  0  0  0  0  0  0  0  0  0
   -1.8696   -0.0495   -0.1911 C   0  0  0  0  0  0  0  0  0  0  0  0
   -2.7659   -0.8912    0.4341 C   0  0  0  0  0  0  0  0  0  0  0  0
   -4.1143   -0.5800    0.4975 O   0  0  0  0  0  0  0  0  0  0  0  0
   -4.5733    0.6160   -0.0870 C   0  0  0  0  0  0  0  0  0  0  0  0
   -3.6806    1.4617   -0.7138 C   0  0  0  0  0  0  0  0  0  0  0  0
   -4.1249    2.6354   -1.2885 C   0  0  0  0  0  0  0  0  0  0  0  0
   -5.4749    2.9566   -1.2305 C   0  0  0  0  0  0  0  0  0  0  0  0
   -5.8875    4.1158   -1.8027 F   0  0  0  0  0  0  0  0  0  0  0  0
   -6.3611    2.1192   -0.6094 C   0  0  0  0  0  0  0  0  0  0  0  0
   -5.9064    0.9494   -0.0387 C   0  0  0  0  0  0  0  0  0  0  0  0
   -6.7463    0.0754    0.5945 F   0  0  0  0  0  0  0  0  0  0  0  0
   -2.3405   -2.0707    1.0154 C   0  0  0  0  0  0  0  0  0  0  0  0
   -3.1597   -2.8483    1.5914 O   0  0  0  0  0  0  0  0  0  0  0  0
   -1.0242   -2.3747    0.9536 N   0  0  0  0  0  0  0  0  0  0  0  0
   -0.5525   -3.6221    1.5645 C   0  0  0  0  0  0  0  0  0  0  0  0
   -0.1434   -1.5607    0.3466 C   0  0  0  0  0  0  0  0  0  0  0  0
    1.1571   -1.8817    0.2970 N   0  0  0  0  0  0  0  0  0  0  0  0
  1  2  1  0
  2  3  1  0
  3  4  2  0
  3  5  1  0
  5  6  1  0
  6  7  1  6
  7  8  1  0
  8  9  2  0
  9 10  1  0
 10 11  2  0
 11 12  1  0
 12 13  2  0
  6 14  1  0
 14 15  2  0
 14 16  1  0
 16 17  1  0
 17 18  1  0
 18 19  1  0
 19 20  1  0
 19 21  2  0
 23 22  1  1
 23 24  1  0
 24 25  1  0
 25 26  1  0
 26 27  2  0
 27 28  1  0
 28 29  2  0
 23 30  1  0
 30 31  1  0
 31 32  2  0
 32 33  1  0
 33 34  2  0
 34 35  1  0
 35 36  2  0
 36 37  1  0
 37 38  1  0
 38 39  2  0
 39 40  1  0
 40 41  2  0
 41 42  1  0
 41 43  1  0
 43 44  2  0
 44 45  1  0
 36 46  1  0
 46 47  2  0
 46 48  1  0
 48 49  1  0
 48 50  1  0
 50 51  2  0
 13  8  1  0
 29 25  1  0
 51 31  1  0
 50 34  1  0
 44 38  1  0
M  RAD  1  20   2
M  END

