
     RDKit          3D

 17 17  0  0  0  0  0  0  0  0999 V2000
    3.3592   -0.9240   -2.1810 C   0  0  0  0  0  0  0  0  0  0  0  0
    3.3279    0.0468   -1.0259 C   0  0  0  0  0  0  0  0  0  0  0  0
    1.9492    0.0998   -0.4633 C   0  0  0  0  0  0  0  0  0  0  0  0
    1.0498   -0.5716   -1.0194 O   0  0  0  0  0  0  0  0  0  0  0  0
    1.6022    0.8694    0.6681 N   0  0  0  0  0  0  0  0  0  0  0  0
    0.1341    0.8274    1.1511 C   0  0  1  0  0  0  0  0  0  0  0  0
   -0.5611    1.1697   -0.3044 C   0  0  0  0  0  0  0  0  0  0  0  0
    0.0326    2.5045   -0.5638 C   0  0  0  0  0  0  0  0  0  0  0  0
   -0.6396    3.6623   -0.0960 N   0  0  0  0  0  0  0  0  0  0  0  0
    1.1094    2.5922   -1.1861 O   0  0  0  0  0  0  0  0  0  0  0  0
   -0.0557   -0.7854    1.0875 C   0  0  0  0  0  0  0  0  0  0  0  0
    0.9525   -1.4391    1.4059 O   0  0  0  0  0  0  0  0  0  0  0  0
   -1.3060   -1.2593    0.7008 N   0  0  0  0  0  0  0  0  0  0  0  0
   -2.3922   -0.4013    0.3072 C   0  0  0  0  0  0  0  0  0  0  0  0
   -3.6382   -1.1906    0.4663 C   0  0  0  0  0  0  0  0  0  0  0  0
   -3.1934   -2.5965    0.4116 C   0  0  0  0  0  0  0  0  0  0  0  0
   -1.7308   -2.6043    0.6413 C   0  0  0  0  0  0  0  0  0  0  0  0
  1  2  1  0
  2  3  1  0
  3  4  2  0
  3  5  1  0
  5  6  1  0
  6  7  1  6
  7  8  1  0
  8  9  1  0
  8 10  2  0
  6 11  1  0
 11 12  2  0
 11 13  1  0
 13 14  1  0
 14 15  1  0
 15 16  1  0
 16 17  1  0
 17 13  1  0
M  END

