
     RDKit          3D

 19 19  0  0  0  0  0  0  0  0999 V2000
   -5.2642   -0.1301    1.7082 N   0  0  0  0  0  4  0  0  0  0  0  0
   -6.0220   -0.6969    0.6432 C   0  0  0  0  0  0  0  0  0  0  0  0
   -5.3403   -1.8101   -0.0867 C   0  0  0  0  0  0  0  0  0  0  0  0
   -4.0480   -1.3427   -0.7049 C   0  0  0  0  0  0  0  0  0  0  0  0
   -3.1248   -0.8397    0.3761 C   0  0  0  0  0  0  0  0  0  0  0  0
   -1.8173   -0.3689   -0.2674 C   0  0  0  0  0  0  0  0  0  0  0  0
   -0.9114    0.1251    0.7964 C   0  0  0  0  0  0  0  0  0  0  0  0
   -1.2047    0.1393    2.0185 O   0  0  0  0  0  0  0  0  0  0  0  0
    0.3462    0.6067    0.4371 N   0  0  0  0  0  0  0  0  0  0  0  0
    1.4062    1.1353    1.2375 C   0  0  0  0  0  0  0  0  0  0  0  0
    2.0689    2.1765    0.4182 C   0  0  0  0  0  0  0  0  0  0  0  0
    1.4322    2.2141   -0.9147 C   0  0  0  0  0  0  0  0  0  0  0  0
    0.8682    0.6580   -1.0491 C   0  0  1  0  0  0  0  0  0  0  0  0
    2.2257   -0.1240   -0.7674 C   0  0  0  0  0  0  0  0  0  0  0  0
    2.8978   -0.2459   -1.8054 O   0  0  0  0  0  0  0  0  0  0  0  0
    2.6521   -0.6168    0.4133 N   0  0  0  0  0  0  0  0  0  0  0  0
    3.9264   -1.3066    0.4598 C   0  0  0  0  0  0  0  0  0  0  0  0
    4.9785   -0.3203    0.0106 C   0  0  0  0  0  0  0  0  0  0  0  0
    4.9305    0.7466    0.9066 O   0  0  0  0  0  0  0  0  0  0  0  0
  1  2  1  0
  2  3  1  0
  3  4  1  0
  4  5  1  0
  5  6  1  0
  6  7  1  0
  7  8  2  0
  7  9  1  0
  9 10  1  0
 10 11  1  0
 11 12  1  0
 12 13  1  0
 13 14  1  1
 14 15  2  0
 14 16  1  0
 16 17  1  0
 17 18  1  0
 18 19  1  0
 13  9  1  0
M  CHG  1   1   1
M  END

