
     RDKit          3D

 52 54  0  0  0  0  0  0  0  0999 V2000
   -4.8508    3.6161   -0.0500 C   0  0  0  0  0  0  0  0  0  0  0  0
   -4.0313    2.8216    0.9406 C   0  0  0  0  0  0  0  0  0  0  0  0
   -3.3730    1.6433    0.2498 C   0  0  0  0  0  0  0  0  0  0  0  0
   -3.5324    1.4563   -0.9800 O   0  0  0  0  0  0  0  0  0  0  0  0
   -2.6079    0.7508    0.8673 N   0  0  0  0  0  0  0  0  0  0  0  0
   -1.8437   -0.4649    0.5085 C   0  0  1  0  0  0  0  0  0  0  0  0
   -2.1101   -0.8106   -1.0049 C   0  0  0  0  0  0  0  0  0  0  0  0
   -3.3965   -1.1006   -1.4461 C   0  0  0  0  0  0  0  0  0  0  0  0
   -4.3649   -2.0824   -1.1500 C   0  0  0  0  0  0  0  0  0  0  0  0
   -4.8128   -2.0762    0.2795 C   0  0  0  0  0  0  0  0  0  0  0  0
   -3.6681   -2.3643    1.1167 N   0  0  0  0  0  4  0  0  0  0  0  0
   -0.3924    0.1100    0.3411 C   0  0  0  0  0  0  0  0  0  0  0  0
   -0.0953    1.2651    0.4776 O   0  0  0  0  0  0  0  0  0  0  0  0
    0.5731   -0.8592    0.0070 N   0  0  0  0  0  0  0  0  0  0  0  0
    1.9618   -0.6339   -0.1959 C   0  0  0  0  0  0  0  0  0  0  0  0
    2.3427    0.3044   -1.2895 C   0  0  0  0  0  0  0  0  0  0  0  0
    3.8913    0.3252   -1.2307 C   0  0  0  0  0  0  0  0  0  0  0  0
    4.2217    0.8352    0.1382 C   0  0  0  0  0  0  0  0  0  0  0  0
    5.5594    0.9314    0.4922 N   0  0  0  0  0  0  0  0  0  0  0  0
    6.5272   -0.0605    0.6042 C   0  0  0  0  0  0  0  0  0  0  0  0
    7.8478    0.2321    0.9780 N   0  0  0  0  0  0  0  0  0  0  0  0
    6.1542   -1.2608    0.3464 N   0  0  0  0  0  4  0  0  0  0  0  0
    3.7496    1.9573    0.1895 C   0  0  0  0  0  0  0  0  0  0  0  0
    4.5616    0.5138    0.1638 C   0  0  2  0  0  0  0  0  0  0  0  0
    5.8900    1.2001   -0.5404 C   0  0  0  0  0  0  0  0  0  0  0  0
    6.7899    0.0701   -0.6697 N   0  0  0  0  0  0  0  0  0  0  0  0
    7.6951   -0.3978    0.1527 N   0  0  0  0  0  0  0  0  0  0  0  0
    8.3113   -1.4810   -0.3737 C   0  0  0  0  0  0  0  0  0  0  0  0
    7.7336   -1.6539   -1.5683 N   0  0  0  0  0  0  0  0  0  0  0  0
    6.8076   -0.7038   -1.7399 N   0  0  0  0  0  0  0  0  0  0  0  0
    3.9328    0.0957   -1.2086 N   0  0  0  0  0  0  0  0  0  0  0  0
    2.4903    0.0038   -1.1656 C   0  0  0  0  0  0  0  0  0  0  0  0
    1.7947   -0.3435   -2.2617 N   0  0  0  0  0  0  0  0  0  0  0  0
    0.4380   -0.4392   -2.2468 C   0  0  0  0  0  0  0  0  0  0  0  0
   -0.2463   -0.1734   -1.0768 C   0  0  0  0  0  0  0  0  0  0  0  0
   -1.6006   -0.2397   -0.9483 C   0  0  0  0  0  0  0  0  0  0  0  0
   -2.2865    0.0397    0.2773 C   0  0  0  0  0  0  0  0  0  0  0  0
   -3.5642   -0.0446    0.3205 O   0  0  0  0  0  0  0  0  0  0  0  0
   -4.8404   -0.1287    0.3638 C   0  0  0  0  0  0  0  0  0  0  0  0
   -5.5903   -0.5036   -0.7967 C   0  0  0  0  0  0  0  0  0  0  0  0
   -6.9508   -0.5972   -0.7632 C   0  0  0  0  0  0  0  0  0  0  0  0
   -7.6656   -0.3365    0.3842 C   0  0  0  0  0  0  0  0  0  0  0  0
   -9.0164   -0.4365    0.3925 F   0  0  0  0  0  0  0  0  0  0  0  0
   -6.9832    0.0250    1.5143 C   0  0  0  0  0  0  0  0  0  0  0  0
   -5.5964    0.1207    1.4812 C   0  0  0  0  0  0  0  0  0  0  0  0
   -4.9340    0.4834    2.6200 F   0  0  0  0  0  0  0  0  0  0  0  0
   -1.5235    0.3916    1.3710 C   0  0  0  0  0  0  0  0  0  0  0  0
   -2.0300    0.6636    2.5197 O   0  0  0  0  0  0  0  0  0  0  0  0
   -0.1926    0.4474    1.2103 N   0  0  0  0  0  0  0  0  0  0  0  0
    0.5979    0.8256    2.3948 C   0  0  0  0  0  0  0  0  0  0  0  0
    0.4453    0.1842    0.0584 C   0  0  0  0  0  0  0  0  0  0  0  0
    1.7832    0.2522   -0.0542 N   0  0  0  0  0  0  0  0  0  0  0  0
  1  2  1  0
  2  3  1  0
  3  4  2  0
  3  5  1  0
  5  6  1  0
  6  7  1  6
  7  8  1  0
  8  9  1  0
  9 10  1  0
 10 11  1  0
  6 12  1  0
 12 13  2  0
 12 14  1  0
 14 15  1  0
 15 16  1  0
 16 17  1  0
 17 18  1  0
 18 19  1  0
 19 20  1  0
 20 21  1  0
 20 22  2  0
 24 23  1  6
 24 25  1  0
 25 26  1  0
 26 27  1  0
 27 28  2  0
 28 29  1  0
 29 30  2  0
 24 31  1  0
 31 32  1  0
 32 33  2  0
 33 34  1  0
 34 35  2  0
 35 36  1  0
 36 37  2  0
 37 38  1  0
 38 39  1  0
 39 40  2  0
 40 41  1  0
 41 42  2  0
 42 43  1  0
 42 44  1  0
 44 45  2  0
 45 46  1  0
 37 47  1  0
 47 48  2  0
 47 49  1  0
 49 50  1  0
 49 51  1  0
 51 52  2  0
 30 26  1  0
 52 32  1  0
 51 35  1  0
 45 39  1  0
M  CHG  2  11   1  22   1
M  END

