
     RDKit          3D

 21 20  0  0  0  0  0  0  0  0999 V2000
    3.9983   -2.9862    0.3710 C   0  0  0  0  0  0  0  0  0  0  0  0
    3.5633   -1.5133    0.3090 C   0  0  0  0  0  0  0  0  0  0  0  0
    4.2958   -0.7901    1.4755 C   0  0  0  0  0  0  0  0  0  0  0  0
    4.0698   -0.9535   -0.9902 C   0  0  0  0  0  0  0  0  0  0  0  0
    3.6770    0.4669   -1.1524 C   0  0  0  0  0  0  0  0  0  0  0  0
    2.3022    0.6700   -1.2300 N   0  0  0  0  0  0  0  0  0  0  0  0
    1.2273    0.4319   -0.3911 C   0  0  0  0  0  0  0  0  0  0  0  0
    1.3190   -0.0625    0.7078 O   0  0  0  0  0  0  0  0  0  0  0  0
   -0.1632    0.8646   -0.9878 C   0  0  2  0  0  0  0  0  0  0  0  0
   -0.0043    2.4551   -0.8785 C   0  0  0  0  0  0  0  0  0  0  0  0
    0.1898    2.9480    0.4688 C   0  0  0  0  0  0  0  0  0  0  0  0
    0.2854    4.4862    0.3575 C   0  0  0  0  0  0  0  0  0  0  0  0
    1.3689    2.4771    1.2660 C   0  0  0  0  0  0  0  0  0  0  0  0
   -1.0289    0.6301    0.2975 N   0  0  0  0  0  0  0  0  0  0  0  0
   -2.2933    0.0323    0.0286 C   0  0  0  0  0  0  0  0  0  0  0  0
   -2.6127   -0.2525   -1.1435 O   0  0  0  0  0  0  0  0  0  0  0  0
   -3.2430   -0.2594    1.1277 C   0  0  0  0  0  0  0  0  0  0  0  0
   -4.4755   -0.9172    0.5764 C   0  0  0  0  0  0  0  0  0  0  0  0
   -4.1978   -2.2140   -0.0999 C   0  0  0  0  0  0  0  0  0  0  0  0
   -5.2614   -2.8998   -0.6596 O   0  0  0  0  0  1  0  0  0  0  0  0
   -3.0168   -2.6141   -0.1251 O   0  0  0  0  0  0  0  0  0  0  0  0
  1  2  1  0
  2  3  1  0
  2  4  1  0
  4  5  1  0
  5  6  1  0
  6  7  1  0
  7  8  2  0
  7  9  1  0
  9 10  1  1
 10 11  1  0
 11 12  1  0
 11 13  1  0
  9 14  1  0
 14 15  1  0
 15 16  2  0
 15 17  1  0
 17 18  1  0
 18 19  1  0
 19 20  1  0
 19 21  2  0
M  RAD  1  20   2
M  END

