
     RDKit          3D

 23 22  0  0  0  0  0  0  0  0999 V2000
    0.0221    2.0943    1.9026 C   0  0  0  0  0  0  0  0  0  0  0  0
   -0.1241    2.8631    0.6736 C   0  0  0  0  0  0  0  0  0  0  0  0
   -1.5253    2.5679   -0.0695 C   0  0  2  0  0  0  0  0  0  0  0  0
   -2.4294    3.0495    1.1820 C   0  0  0  0  0  0  0  0  0  0  0  0
   -1.6452    0.8942    0.3065 C   0  0  2  0  0  0  0  0  0  0  0  0
   -0.3059    0.5488   -0.4388 N   0  0  0  0  0  0  0  0  0  0  0  0
    0.4867   -0.4510    0.1578 C   0  0  0  0  0  0  0  0  0  0  0  0
    0.1402   -1.0233    1.2109 O   0  0  0  0  0  0  0  0  0  0  0  0
    1.7650   -0.8434   -0.4649 C   0  0  0  0  0  0  0  0  0  0  0  0
    2.5238   -1.8404    0.3589 C   0  0  0  0  0  0  0  0  0  0  0  0
    3.8294   -2.1973   -0.3452 C   0  0  0  0  0  0  0  0  0  0  0  0
    4.6886   -0.9886   -0.5632 C   0  0  0  0  0  0  0  0  0  0  0  0
    5.0840   -0.2764    0.5889 N   0  0  0  0  0  0  0  0  0  0  0  0
    5.8641   -0.8613    1.6067 C   0  0  0  0  0  0  0  0  0  0  0  0
    6.2544   -0.1004    2.7628 N   0  0  0  0  0  0  0  0  0  0  0  0
    6.2482   -2.0633    1.5344 N   0  0  0  0  0  4  0  0  0  0  0  0
   -2.6470    0.5964   -0.9074 C   0  0  0  0  0  0  0  0  0  0  0  0
   -2.2953    0.2659   -2.0068 O   0  0  0  0  0  0  0  0  0  0  0  0
   -3.9987    0.7721   -0.5179 N   0  0  0  0  0  0  0  0  0  0  0  0
   -5.0753    0.5650   -1.4536 C   0  0  0  0  0  0  0  0  0  0  0  0
   -4.8986   -1.0382   -1.9482 C   0  0  1  0  0  0  0  0  0  0  0  0
   -5.8295   -1.5947   -0.6824 C   0  0  0  0  0  0  0  0  0  0  0  0
   -6.1321   -0.9390   -2.8872 O   0  0  0  0  0  0  0  0  0  0  0  0
  1  2  1  0
  2  3  1  0
  3  4  1  1
  3  5  1  0
  5  6  1  6
  6  7  1  0
  7  8  2  0
  7  9  1  0
  9 10  1  0
 10 11  1  0
 11 12  1  0
 12 13  1  0
 13 14  1  0
 14 15  1  0
 14 16  2  0
  5 17  1  0
 17 18  2  0
 17 19  1  0
 19 20  1  0
 20 21  1  0
 21 22  1  1
 21 23  1  0
M  CHG  1  16   1
M  END

