
     RDKit          3D

 22 21  0  0  0  0  0  0  0  0999 V2000
    6.2264   -0.8696   -0.3958 C   0  0  0  0  0  0  0  0  0  0  0  0
    5.5827    0.3255    0.1300 C   0  0  0  0  0  0  0  0  0  0  0  0
    5.1970    1.3380   -0.8219 C   0  0  0  0  0  0  0  0  0  0  0  0
    4.8007    0.1538    1.3483 C   0  0  0  0  0  0  0  0  0  0  0  0
    3.6713   -0.7768    1.3667 C   0  0  0  0  0  0  0  0  0  0  0  0
    2.6066   -0.4414    0.4231 C   0  0  0  0  0  0  0  0  0  0  0  0
    2.6968    0.5995   -0.2611 O   0  0  0  0  0  0  0  0  0  0  0  0
    1.4452   -1.2705    0.2475 N   0  0  0  0  0  0  0  0  0  0  0  0
    0.4807   -0.6693   -0.8185 C   0  0  1  0  0  0  0  0  0  0  0  0
   -0.3557   -1.9921   -1.0716 C   0  0  0  0  0  0  0  0  0  0  0  0
   -1.0158   -2.5994    0.0265 C   0  0  0  0  0  0  0  0  0  0  0  0
   -2.0392   -1.7581    0.7012 C   0  0  0  0  0  0  0  0  0  0  0  0
   -0.1742   -3.2623    1.0914 C   0  0  0  0  0  0  0  0  0  0  0  0
   -0.4709    0.1768    0.0947 C   0  0  0  0  0  0  0  0  0  0  0  0
   -0.4144    0.2292    1.3018 O   0  0  0  0  0  0  0  0  0  0  0  0
   -1.4737    0.9503   -0.5698 N   0  0  0  0  0  0  0  0  0  0  0  0
   -2.4311    1.8046   -0.0184 C   0  0  0  0  0  0  0  0  0  0  0  0
   -3.4684    1.3815    0.8926 C   0  0  0  0  0  0  0  0  0  0  0  0
   -4.4851    0.3978    0.4370 C   0  0  0  0  0  0  0  0  0  0  0  0
   -5.2685    0.8990   -0.7390 C   0  0  0  0  0  0  0  0  0  0  0  0
   -6.0148    2.1597   -0.4638 C   0  0  0  0  0  0  0  0  0  0  0  0
   -5.0956    3.2238   -0.0867 N   0  0  0  0  0  4  0  0  0  0  0  0
  1  2  1  0
  2  3  1  0
  2  4  1  0
  4  5  1  0
  5  6  1  0
  6  7  2  0
  6  8  1  0
  8  9  1  0
  9 10  1  1
 10 11  1  0
 11 12  1  0
 11 13  1  0
  9 14  1  0
 14 15  2  0
 14 16  1  0
 16 17  1  0
 17 18  1  0
 18 19  1  0
 19 20  1  0
 20 21  1  0
 21 22  1  0
M  CHG  1  22   1
M  END

