
     RDKit          3D

 19 18  0  0  0  0  0  0  0  0999 V2000
    5.7135   -0.1553    0.3544 C   0  0  0  0  0  0  0  0  0  0  0  0
    4.2437   -0.2789    0.6707 C   0  0  0  0  0  0  0  0  0  0  0  0
    3.4634   -0.9541   -0.3976 C   0  0  0  0  0  0  0  0  0  0  0  0
    3.7711    1.1466    0.9768 C   0  0  0  0  0  0  0  0  0  0  0  0
    2.2873    1.1380    1.2984 C   0  0  0  0  0  0  0  0  0  0  0  0
    1.6853    0.6045    0.0548 N   0  0  0  0  0  0  0  0  0  0  0  0
    0.2631    0.4749    0.1030 C   0  0  0  0  0  0  0  0  0  0  0  0
   -0.3951    0.7729    1.0647 O   0  0  0  0  0  0  0  0  0  0  0  0
   -0.3553   -0.0991   -1.2408 C   0  0  2  0  0  0  0  0  0  0  0  0
   -0.4512    1.3789   -1.9738 C   0  0  0  0  0  0  0  0  0  0  0  0
   -1.2873    2.2532   -1.2032 C   0  0  0  0  0  0  0  0  0  0  0  0
   -2.6904    2.3099   -1.4514 N   0  0  0  0  0  0  0  0  0  0  0  0
   -0.8078    2.9705   -0.3117 O   0  0  0  0  0  0  0  0  0  0  0  0
   -1.8403   -0.1257   -0.7609 N   0  0  0  0  0  0  0  0  0  0  0  0
   -2.1330   -1.2522    0.0691 C   0  0  0  0  0  0  0  0  0  0  0  0
   -1.2266   -2.0458    0.3087 O   0  0  0  0  0  0  0  0  0  0  0  0
   -3.5041   -1.4649    0.6350 C   0  0  0  0  0  0  0  0  0  0  0  0
   -3.5158   -2.8269    1.3574 C   0  0  0  0  0  0  0  0  0  0  0  0
   -3.2206   -3.8465    0.4466 O   0  0  0  0  0  0  0  0  0  0  0  0
  1  2  1  0
  2  3  1  0
  2  4  1  0
  4  5  1  0
  5  6  1  0
  6  7  1  0
  7  8  2  0
  7  9  1  0
  9 10  1  6
 10 11  1  0
 11 12  1  0
 11 13  2  0
  9 14  1  0
 14 15  1  0
 15 16  2  0
 15 17  1  0
 17 18  1  0
 18 19  1  0
M  END

