
     RDKit          3D

 23 22  0  0  0  0  0  0  0  0999 V2000
   -2.1779    3.7865   -3.0949 C   0  0  0  0  0  0  0  0  0  0  0  0
   -2.6967    4.2022   -1.7592 C   0  0  0  0  0  0  0  0  0  0  0  0
   -1.7050    4.8675   -0.8743 C   0  0  0  0  0  0  0  0  0  0  0  0
   -3.6780    3.3307   -1.1076 C   0  0  0  0  0  0  0  0  0  0  0  0
   -3.2868    1.9363   -0.8125 C   0  0  0  0  0  0  0  0  0  0  0  0
   -2.1522    1.7297    0.0871 C   0  0  0  0  0  0  0  0  0  0  0  0
   -1.5171    2.6329    0.6437 O   0  0  0  0  0  0  0  0  0  0  0  0
   -1.7152    0.4166    0.3697 N   0  0  0  0  0  0  0  0  0  0  0  0
   -0.5057    0.2921    1.3361 C   0  0  1  0  0  0  0  0  0  0  0  0
   -1.1188   -0.9015    2.2564 C   0  0  0  0  0  0  0  0  0  0  0  0
   -1.3942   -2.1024    1.5718 C   0  0  0  0  0  0  0  0  0  0  0  0
   -2.3689   -2.2512    0.5395 C   0  0  0  0  0  0  0  0  0  0  0  0
   -2.3719   -3.5083   -0.1562 O   0  0  0  0  0  1  0  0  0  0  0  0
   -3.2478   -1.4767    0.1092 O   0  0  0  0  0  0  0  0  0  0  0  0
    0.4419   -0.5665    0.3971 C   0  0  0  0  0  0  0  0  0  0  0  0
    0.1918   -0.9457   -0.7028 O   0  0  0  0  0  0  0  0  0  0  0  0
    1.6643   -0.8567    1.0039 N   0  0  0  0  0  0  0  0  0  0  0  0
    2.7408   -1.6205    0.4059 C   0  0  0  0  0  0  0  0  0  0  0  0
    3.2632   -1.0053   -0.8647 C   0  0  0  0  0  0  0  0  0  0  0  0
    4.3851   -1.9298   -1.3563 C   0  0  0  0  0  0  0  0  0  0  0  0
    5.4626   -2.0099   -0.3124 C   0  0  0  0  0  0  0  0  0  0  0  0
    5.3390   -1.3048    0.8803 O   0  0  0  0  0  1  0  0  0  0  0  0
    6.4475   -2.7154   -0.5507 O   0  0  0  0  0  0  0  0  0  0  0  0
  1  2  1  0
  2  3  1  0
  2  4  1  0
  4  5  1  0
  5  6  1  0
  6  7  2  0
  6  8  1  0
  8  9  1  0
  9 10  1  1
 10 11  1  0
 11 12  1  0
 12 13  1  0
 12 14  2  0
  9 15  1  0
 15 16  2  0
 15 17  1  0
 17 18  1  0
 18 19  1  0
 19 20  1  0
 20 21  1  0
 21 22  1  0
 21 23  2  0
M  RAD  2  13   2  22   2
M  END

