
     RDKit          3D

 21 21  0  0  0  0  0  0  0  0999 V2000
   -5.5334   -1.3760   -0.7454 C   0  0  0  0  0  0  0  0  0  0  0  0
   -5.5659   -0.1352    0.1264 C   0  0  0  0  0  0  0  0  0  0  0  0
   -5.6649    1.0530   -0.7858 C   0  0  0  0  0  0  0  0  0  0  0  0
   -4.3900   -0.0930    1.0470 C   0  0  0  0  0  0  0  0  0  0  0  0
   -3.1462   -0.0817    0.1860 C   0  0  0  0  0  0  0  0  0  0  0  0
   -3.2550   -0.1064   -1.0787 O   0  0  0  0  0  0  0  0  0  0  0  0
   -1.8583   -0.0443    0.7437 N   0  0  0  0  0  0  0  0  0  0  0  0
   -0.7208   -0.0382   -0.2830 C   0  0  2  0  0  0  0  0  0  0  0  0
    0.3320   -0.8030    0.5829 C   0  0  0  0  0  0  0  0  0  0  0  0
   -0.0073   -1.1611    1.7248 O   0  0  0  0  0  0  0  0  0  0  0  0
    1.6123   -1.0842    0.1108 N   0  0  0  0  0  0  0  0  0  0  0  0
    2.5065   -1.8000    1.0027 C   0  0  0  0  0  0  0  0  0  0  0  0
    3.8117   -1.9794    0.2685 C   0  0  0  0  0  0  0  0  0  0  0  0
    4.3107   -0.6188   -0.0459 C   0  0  0  0  0  0  0  0  0  0  0  0
    3.9909    0.0390   -1.2117 C   0  0  0  0  0  0  0  0  0  0  0  0
    4.5910    1.2229   -1.1852 N   0  0  0  0  0  0  0  0  0  0  0  0
    5.2788    1.3401   -0.0469 C   0  0  0  0  0  0  0  0  0  0  0  0
    5.0976    0.1846    0.6583 N   0  0  0  0  0  0  0  0  0  0  0  0
   -0.2279    1.5492    0.1005 C   0  0  1  0  0  0  0  0  0  0  0  0
    0.3882    1.7924   -1.4077 C   0  0  0  0  0  0  0  0  0  0  0  0
   -1.5499    2.1401   -0.2734 O   0  0  0  0  0  0  0  0  0  0  0  0
  1  2  1  0
  2  3  1  0
  2  4  1  0
  4  5  1  0
  5  6  2  0
  5  7  1  0
  8  7  1  1
  8  9  1  0
  9 10  2  0
  9 11  1  0
 11 12  1  0
 12 13  1  0
 13 14  1  0
 14 15  2  0
 15 16  1  0
 16 17  1  0
 17 18  2  0
  8 19  1  0
 19 20  1  6
 19 21  1  0
 18 14  1  0
M  END

