
     RDKit          3D

 49 52  0  0  0  0  0  0  0  0999 V2000
   -2.7171    3.8637    0.4362 C   0  0  0  0  0  0  0  0  0  0  0  0
   -2.4550    2.4155    0.1670 C   0  0  0  0  0  0  0  0  0  0  0  0
   -2.0085    2.0714   -0.9558 O   0  0  0  0  0  0  0  0  0  0  0  0
   -2.7030    1.4816    1.1438 N   0  0  0  0  0  0  0  0  0  0  0  0
   -2.4363   -0.0485    0.9026 C   0  0  1  0  0  0  0  0  0  0  0  0
   -2.8127   -0.0128   -0.6578 C   0  0  0  0  0  0  0  0  0  0  0  0
   -2.7465   -1.2818   -1.3187 C   0  0  0  0  0  0  0  0  0  0  0  0
   -1.5119   -2.0530   -1.4089 C   0  0  0  0  0  0  0  0  0  0  0  0
   -3.9941   -2.1206   -1.1061 C   0  0  0  0  0  0  0  0  0  0  0  0
   -0.8762    0.0533    0.7519 C   0  0  0  0  0  0  0  0  0  0  0  0
   -0.2534    1.0918    0.7073 O   0  0  0  0  0  0  0  0  0  0  0  0
   -0.1833   -1.1598    0.6717 N   0  0  0  0  0  0  0  0  0  0  0  0
    1.2340   -1.1488    0.5389 C   0  0  0  0  0  0  0  0  0  0  0  0
    1.6920   -0.4229   -0.7271 C   0  0  0  0  0  0  0  0  0  0  0  0
    3.1797   -0.4963   -0.7196 C   0  0  0  0  0  0  0  0  0  0  0  0
    3.9754   -1.4794   -1.2675 C   0  0  0  0  0  0  0  0  0  0  0  0
    5.2650   -1.1487   -1.0320 N   0  0  0  0  0  0  0  0  0  0  0  0
    5.3095   -0.0049   -0.3625 C   0  0  0  0  0  0  0  0  0  0  0  0
    4.0424    0.4005   -0.1673 N   0  0  0  0  0  0  0  0  0  0  0  0
    4.4230   -0.5585   -3.1737 C   0  0  0  0  0  0  0  0  0  0  0  0
    4.9940    0.4233   -1.9667 C   0  0  2  0  0  0  0  0  0  0  0  0
    4.5735   -0.6345   -0.7757 C   0  0  0  0  0  0  0  0  0  0  0  0
    5.0062    0.0633    0.4254 N   0  0  0  0  0  0  0  0  0  0  0  0
    4.2552    0.8842    1.1047 N   0  0  0  0  0  0  0  0  0  0  0  0
    4.9277    1.3749    2.1636 C   0  0  0  0  0  0  0  0  0  0  0  0
    6.1426    0.8044    2.0950 N   0  0  0  0  0  0  0  0  0  0  0  0
    6.1681    0.0159    1.0373 N   0  0  0  0  0  0  0  0  0  0  0  0
    3.6915    1.2806   -1.8368 N   0  0  0  0  0  0  0  0  0  0  0  0
    2.4663    0.6537   -1.6117 C   0  0  0  0  0  0  0  0  0  0  0  0
    2.4374   -0.6851   -1.5166 N   0  0  0  0  0  0  0  0  0  0  0  0
    1.3498   -1.4128   -1.3051 C   0  0  0  0  0  0  0  0  0  0  0  0
    0.1388   -0.7643   -1.1685 C   0  0  0  0  0  0  0  0  0  0  0  0
   -1.0103   -1.4998   -0.9473 C   0  0  0  0  0  0  0  0  0  0  0  0
   -2.1877   -0.7926   -0.8197 C   0  0  0  0  0  0  0  0  0  0  0  0
   -3.3527   -1.4910   -0.5987 O   0  0  0  0  0  0  0  0  0  0  0  0
   -4.0932   -1.2598    0.5457 C   0  0  0  0  0  0  0  0  0  0  0  0
   -5.3851   -0.8205    0.3923 C   0  0  0  0  0  0  0  0  0  0  0  0
   -6.1538   -0.5790    1.4902 C   0  0  0  0  0  0  0  0  0  0  0  0
   -5.6649   -0.7655    2.7647 C   0  0  0  0  0  0  0  0  0  0  0  0
   -6.4463   -0.5193    3.8409 F   0  0  0  0  0  0  0  0  0  0  0  0
   -4.3711   -1.2051    2.8946 C   0  0  0  0  0  0  0  0  0  0  0  0
   -3.5672   -1.4585    1.8001 C   0  0  0  0  0  0  0  0  0  0  0  0
   -2.2903   -1.8932    1.9827 F   0  0  0  0  0  0  0  0  0  0  0  0
   -2.1708    0.6018   -0.9168 C   0  0  0  0  0  0  0  0  0  0  0  0
   -3.2709    1.1730   -0.7915 O   0  0  0  0  0  0  0  0  0  0  0  0
   -1.0240    1.2741   -1.1333 N   0  0  0  0  0  0  0  0  0  0  0  0
   -1.0344    2.7310   -1.2305 C   0  0  0  0  0  0  0  0  0  0  0  0
    0.1444    0.6128   -1.2627 C   0  0  0  0  0  0  0  0  0  0  0  0
    1.3046    1.2929   -1.4818 N   0  0  0  0  0  0  0  0  0  0  0  0
  1  2  1  0
  2  3  2  0
  2  4  1  0
  4  5  1  0
  5  6  1  6
  6  7  1  0
  7  8  1  0
  7  9  1  0
  5 10  1  0
 10 11  2  0
 10 12  1  0
 12 13  1  0
 13 14  1  0
 14 15  1  0
 15 16  2  0
 16 17  1  0
 17 18  1  0
 18 19  2  0
 21 20  1  6
 21 22  1  0
 22 23  1  0
 23 24  1  0
 24 25  2  0
 25 26  1  0
 26 27  2  0
 21 28  1  0
 28 29  1  0
 29 30  2  0
 30 31  1  0
 31 32  2  0
 32 33  1  0
 33 34  2  0
 34 35  1  0
 35 36  1  0
 36 37  2  0
 37 38  1  0
 38 39  2  0
 39 40  1  0
 39 41  1  0
 41 42  2  0
 42 43  1  0
 34 44  1  0
 44 45  2  0
 44 46  1  0
 46 47  1  0
 46 48  1  0
 48 49  2  0
 19 15  1  0
 27 23  1  0
 49 29  1  0
 48 32  1  0
 42 36  1  0
M  END

