
     RDKit          3D

 17 16  0  0  0  0  0  0  0  0999 V2000
   -2.9720    0.4723    4.1125 C   0  0  0  0  0  0  0  0  0  0  0  0
   -2.7387    0.8018    2.7221 N   0  0  0  0  0  0  0  0  0  0  0  0
   -1.9319   -0.0268    1.9398 C   0  0  0  0  0  0  0  0  0  0  0  0
   -1.4046   -1.0267    2.3596 O   0  0  0  0  0  0  0  0  0  0  0  0
   -1.7936    0.5094    0.4506 C   0  0  1  0  0  0  0  0  0  0  0  0
   -0.4376   -0.2074    0.2034 N   0  0  0  0  0  0  0  0  0  0  0  0
    0.3424    0.0204   -0.8745 C   0  0  0  0  0  0  0  0  0  0  0  0
   -0.0691    0.8627   -1.7417 O   0  0  0  0  0  0  0  0  0  0  0  0
    1.6209   -0.6068   -1.1394 C   0  0  0  0  0  0  0  0  0  0  0  0
    2.2076   -0.1889   -2.4389 C   0  0  0  0  0  0  0  0  0  0  0  0
    3.5859   -0.8778   -2.5770 C   0  0  0  0  0  0  0  0  0  0  0  0
    4.3807   -0.3144   -1.3873 C   0  0  0  0  0  0  0  0  0  0  0  0
    3.6882   -0.6552   -0.1176 C   0  0  0  0  0  0  0  0  0  0  0  0
    4.4151   -0.1285    0.9959 N   0  0  0  0  0  4  0  0  0  0  0  0
   -2.7933   -0.7858   -0.2348 C   0  0  1  0  0  0  0  0  0  0  0  0
   -3.9770    0.3056   -0.6821 C   0  0  0  0  0  0  0  0  0  0  0  0
   -2.1231   -0.6742   -1.5902 O   0  0  0  0  0  0  0  0  0  0  0  0
  1  2  1  0
  2  3  1  0
  3  4  2  0
  3  5  1  0
  5  6  1  6
  6  7  1  0
  7  8  2  0
  7  9  1  0
  9 10  1  0
 10 11  1  0
 11 12  1  0
 12 13  1  0
 13 14  1  0
  5 15  1  0
 15 16  1  6
 15 17  1  0
M  CHG  1  14   1
M  END

