
     RDKit          3D

 22 22  0  0  0  0  0  0  0  0999 V2000
   -0.1281    2.8826   -1.0622 C   0  0  0  0  0  0  0  0  0  0  0  0
   -1.4195    3.7971   -1.3848 C   0  0  1  0  0  0  0  0  0  0  0  0
   -1.4121    3.4486   -2.8761 O   0  0  0  0  0  0  0  0  0  0  0  0
   -2.5363    2.7473   -0.9571 C   0  0  0  0  0  0  0  0  0  0  0  0
   -2.3567    1.4372   -1.1446 N   0  0  0  0  0  0  0  0  0  0  0  0
   -1.5078    0.4476   -0.6981 C   0  0  0  0  0  0  0  0  0  0  0  0
   -0.6209    0.6272    0.0938 O   0  0  0  0  0  0  0  0  0  0  0  0
   -1.8324   -0.9577   -1.3472 C   0  0  2  0  0  0  0  0  0  0  0  0
   -2.9955   -1.3023   -0.2169 C   0  0  0  0  0  0  0  0  0  0  0  0
   -2.7652   -2.7987   -0.2450 C   0  0  0  0  0  0  0  0  0  0  0  0
   -1.2888   -2.7282    0.1821 C   0  0  0  0  0  0  0  0  0  0  0  0
   -0.7277   -1.7497   -0.6342 N   0  0  0  0  0  0  0  0  0  0  0  0
    0.6168   -1.4481   -0.8492 C   0  0  0  0  0  0  0  0  0  0  0  0
    1.0225   -0.5157   -1.6280 O   0  0  0  0  0  0  0  0  0  0  0  0
    1.6897   -2.2026   -0.1766 C   0  0  0  0  0  0  0  0  0  0  0  0
    3.0642   -1.7654   -0.5113 C   0  0  0  0  0  0  0  0  0  0  0  0
    3.4066   -0.3604   -0.1863 C   0  0  0  0  0  0  0  0  0  0  0  0
    3.3038    0.0136    1.2433 C   0  0  0  0  0  0  0  0  0  0  0  0
    1.9518   -0.1821    1.7137 N   0  0  0  0  0  0  0  0  0  0  0  0
    1.6517    0.1197    3.0556 C   0  0  0  0  0  0  0  0  0  0  0  0
    0.3200   -0.0730    3.5191 N   0  0  0  0  0  0  0  0  0  0  0  0
    2.5637    0.5629    3.8537 N   0  0  0  0  0  4  0  0  0  0  0  0
  2  1  1  1
  2  3  1  0
  2  4  1  0
  4  5  1  0
  5  6  1  0
  6  7  2  0
  8  6  1  1
  8  9  1  0
  9 10  1  0
 10 11  1  0
 11 12  1  0
 12 13  1  0
 13 14  2  0
 13 15  1  0
 15 16  1  0
 16 17  1  0
 17 18  1  0
 18 19  1  0
 19 20  1  0
 20 21  1  0
 20 22  2  0
 12  8  1  0
M  CHG  1  22   1
M  END

