
     RDKit          3D

 24 25  0  0  0  0  0  0  0  0999 V2000
    5.2274    0.6612   -2.7215 C   0  0  0  0  0  0  0  0  0  0  0  0
    4.5885    0.2533   -1.4286 C   0  0  0  0  0  0  0  0  0  0  0  0
    4.9879    1.2179   -0.3249 C   0  0  0  0  0  0  0  0  0  0  0  0
    5.0795   -1.1668   -1.1194 C   0  0  0  0  0  0  0  0  0  0  0  0
    4.4473   -1.5360    0.1358 N   0  0  0  0  0  0  0  0  0  0  0  0
    3.0715   -1.6016    0.3348 C   0  0  0  0  0  0  0  0  0  0  0  0
    2.2679   -1.3492   -0.5497 O   0  0  0  0  0  0  0  0  0  0  0  0
    2.4914   -2.0132    1.7421 C   0  0  1  0  0  0  0  0  0  0  0  0
    2.6421   -0.5370    2.4671 C   0  0  0  0  0  0  0  0  0  0  0  0
    1.7703   -0.5648    3.5387 O   0  0  0  0  0  0  0  0  0  0  0  0
    0.9763   -1.8872    1.4169 N   0  0  0  0  0  0  0  0  0  0  0  0
    0.4539   -0.6320    1.0795 C   0  0  0  0  0  0  0  0  0  0  0  0
    1.1731    0.4009    1.0342 O   0  0  0  0  0  0  0  0  0  0  0  0
   -1.0052   -0.4666    0.7535 C   0  0  0  0  0  0  0  0  0  0  0  0
   -1.2844    0.9634    0.4178 C   0  0  0  0  0  0  0  0  0  0  0  0
   -2.7119    1.1705    0.0971 C   0  0  0  0  0  0  0  0  0  0  0  0
   -3.6607    1.7536    0.9081 C   0  0  0  0  0  0  0  0  0  0  0  0
   -4.8446    1.7648    0.2681 N   0  0  0  0  0  0  0  0  0  0  0  0
   -4.7065    1.1989   -0.9596 C   0  0  0  0  0  0  0  0  0  0  0  0
   -5.5952    0.9738   -1.9779 C   0  0  0  0  0  0  0  0  0  0  0  0
   -5.1705    0.3662   -3.1397 C   0  0  0  0  0  0  0  0  0  0  0  0
   -3.8581   -0.0159   -3.2832 C   0  0  0  0  0  0  0  0  0  0  0  0
   -2.9764    0.2194   -2.2450 C   0  0  0  0  0  0  0  0  0  0  0  0
   -3.3636    0.8264   -1.0632 C   0  0  0  0  0  0  0  0  0  0  0  0
  1  2  1  0
  2  3  1  0
  2  4  1  0
  4  5  1  0
  5  6  1  0
  6  7  2  0
  6  8  1  0
  8  9  1  6
  9 10  1  0
  8 11  1  0
 11 12  1  0
 12 13  2  0
 12 14  1  0
 14 15  1  0
 15 16  1  0
 16 17  2  0
 17 18  1  0
 18 19  1  0
 19 20  2  0
 20 21  1  0
 21 22  2  0
 22 23  1  0
 23 24  2  0
 24 16  1  0
 24 19  1  0
M  END

