
     RDKit          3D

 50 52  0  0  0  0  0  0  0  0999 V2000
   -5.8052    0.4579   -2.1280 C   0  0  0  0  0  0  0  0  0  0  0  0
   -5.4645   -0.3534   -0.9011 C   0  0  0  0  0  0  0  0  0  0  0  0
   -4.1052    0.1054   -0.5201 N   0  0  0  0  0  0  0  0  0  0  0  0
   -3.6968   -0.7825    0.6382 C   0  0  0  0  0  0  0  0  0  0  0  0
   -4.4546   -1.6402    1.1068 O   0  0  0  0  0  0  0  0  0  0  0  0
   -2.3006   -0.5436    1.1934 C   0  0  1  0  0  0  0  0  0  0  0  0
   -1.2510   -1.1479    0.4214 N   0  0  0  0  0  0  0  0  0  0  0  0
    0.0641   -0.4886    0.3328 C   0  0  0  0  0  0  0  0  0  0  0  0
    0.1489    0.5607    0.9503 O   0  0  0  0  0  0  0  0  0  0  0  0
    1.1932   -1.0923   -0.4216 C   0  0  0  0  0  0  0  0  0  0  0  0
    2.4624   -0.5356    0.0191 C   0  0  0  0  0  0  0  0  0  0  0  0
    3.0267    0.7440   -0.4022 C   0  0  0  0  0  0  0  0  0  0  0  0
    3.5752    0.6685   -1.8800 C   0  0  0  0  0  0  0  0  0  0  0  0
    4.5961   -0.4440   -1.8069 N   0  0  0  0  0  0  0  0  0  0  0  0
    5.6608   -0.4256   -0.9317 C   0  0  0  0  0  0  0  0  0  0  0  0
    6.6469   -1.5479   -0.9079 N   0  0  0  0  0  0  0  0  0  0  0  0
    5.8267    0.5719   -0.1189 N   0  0  0  0  0  4  0  0  0  0  0  0
   -2.0838    0.8519    1.5717 C   0  0  0  0  0  0  0  0  0  0  0  0
   -2.2024    1.9902    0.7342 C   0  0  0  0  0  0  0  0  0  0  0  0
   -1.8368    1.0695    3.0506 C   0  0  0  0  0  0  0  0  0  0  0  0
    4.5781    0.2583   -0.7601 C   0  0  0  0  0  0  0  0  0  0  0  0
    4.6456    0.2605    0.9099 C   0  0  2  0  0  0  0  0  0  0  0  0
    5.8116   -0.9353    0.9363 C   0  0  0  0  0  0  0  0  0  0  0  0
    6.9077   -0.3249    0.1932 N   0  0  0  0  0  0  0  0  0  0  0  0
    7.1598   -0.3603   -1.0985 N   0  0  0  0  0  0  0  0  0  0  0  0
    8.2882    0.3451   -1.3721 C   0  0  0  0  0  0  0  0  0  0  0  0
    8.7203    0.8139   -0.2092 N   0  0  0  0  0  0  0  0  0  0  0  0
    7.8878    0.4073    0.7188 N   0  0  0  0  0  0  0  0  0  0  0  0
    3.4499   -0.7621    1.0632 N   0  0  0  0  0  0  0  0  0  0  0  0
    2.2160   -0.3665    0.5269 C   0  0  0  0  0  0  0  0  0  0  0  0
    2.1042    0.8280   -0.0763 N   0  0  0  0  0  0  0  0  0  0  0  0
    0.9478    1.2693   -0.6128 C   0  0  0  0  0  0  0  0  0  0  0  0
   -0.1699    0.4856   -0.5519 C   0  0  0  0  0  0  0  0  0  0  0  0
   -1.4001    0.8455   -1.0701 C   0  0  0  0  0  0  0  0  0  0  0  0
   -2.4880   -0.0013   -0.9706 C   0  0  0  0  0  0  0  0  0  0  0  0
   -3.7341    0.3282   -1.4788 O   0  0  0  0  0  0  0  0  0  0  0  0
   -4.8776    0.4276   -0.7306 C   0  0  0  0  0  0  0  0  0  0  0  0
   -5.9841   -0.3666   -0.9818 C   0  0  0  0  0  0  0  0  0  0  0  0
   -7.0979   -0.1901   -0.1659 C   0  0  0  0  0  0  0  0  0  0  0  0
   -7.1222    0.7329    0.8586 C   0  0  0  0  0  0  0  0  0  0  0  0
   -8.2563    0.8246    1.5932 F   0  0  0  0  0  0  0  0  0  0  0  0
   -6.0171    1.5228    1.1059 C   0  0  0  0  0  0  0  0  0  0  0  0
   -4.9238    1.3429    0.2977 C   0  0  0  0  0  0  0  0  0  0  0  0
   -3.8283    2.1060    0.5211 F   0  0  0  0  0  0  0  0  0  0  0  0
   -2.3540   -1.2191   -0.3500 C   0  0  0  0  0  0  0  0  0  0  0  0
   -3.3497   -2.0067   -0.2530 O   0  0  0  0  0  0  0  0  0  0  0  0
   -1.1470   -1.5459    0.1458 N   0  0  0  0  0  0  0  0  0  0  0  0
   -1.0266   -2.8523    0.8050 C   0  0  0  0  0  0  0  0  0  0  0  0
   -0.0688   -0.7444    0.0653 C   0  0  0  0  0  0  0  0  0  0  0  0
    1.1286   -1.1230    0.5833 N   0  0  0  0  0  0  0  0  0  0  0  0
  1  2  1  0
  2  3  1  0
  3  4  1  0
  4  5  2  0
  4  6  1  0
  6  7  1  6
  7  8  1  0
  8  9  2  0
  8 10  1  0
 10 11  1  0
 11 12  1  0
 12 13  1  0
 13 14  1  0
 14 15  1  0
 15 16  1  0
 15 17  2  0
  6 18  1  0
 18 19  1  0
 18 20  1  0
 22 21  1  6
 22 23  1  0
 23 24  1  0
 24 25  1  0
 25 26  2  0
 26 27  1  0
 27 28  2  0
 22 29  1  0
 29 30  1  0
 30 31  2  0
 31 32  1  0
 32 33  2  0
 33 34  1  0
 34 35  2  0
 35 36  1  0
 36 37  1  0
 37 38  2  0
 38 39  1  0
 39 40  2  0
 40 41  1  0
 40 42  1  0
 42 43  2  0
 43 44  1  0
 35 45  1  0
 45 46  2  0
 45 47  1  0
 47 48  1  0
 47 49  1  0
 49 50  2  0
 28 24  1  0
 50 30  1  0
 49 33  1  0
 43 37  1  0
M  CHG  1  17   1
M  END

