
     RDKit          3D

 15 16  0  0  0  0  0  0  0  0999 V2000
    0.0464   -0.1079    2.1617 O   0  0  0  0  0  1  0  0  0  0  0  0
   -1.2860   -0.3105    2.1267 C   0  0  0  0  0  0  0  0  0  0  0  0
   -1.9634   -0.0352    3.1048 O   0  0  0  0  0  0  0  0  0  0  0  0
   -1.8051   -0.8992    0.7979 C   0  0  2  0  0  0  0  0  0  0  0  0
   -0.8861   -2.2861    0.8637 C   0  0  0  0  0  0  0  0  0  0  0  0
   -0.8188   -2.5328   -0.6174 C   0  0  0  0  0  0  0  0  0  0  0  0
   -1.3087   -1.2800   -1.2937 C   0  0  0  0  0  0  0  0  0  0  0  0
   -0.9570   -0.2990   -0.2612 N   0  0  0  0  0  0  0  0  0  0  0  0
   -0.1155    0.7774   -0.4277 C   0  0  0  0  0  0  0  0  0  0  0  0
    0.1138    1.5958    0.4553 O   0  0  0  0  0  0  0  0  0  0  0  0
    0.5595    0.9103   -1.8527 C   0  0  2  0  0  0  0  0  0  0  0  0
    1.7741   -0.1529   -1.5802 C   0  0  0  0  0  0  0  0  0  0  0  0
    2.5996    0.5705   -0.5606 C   0  0  0  0  0  0  0  0  0  0  0  0
    2.6815    1.8517   -1.3572 C   0  0  0  0  0  0  0  0  0  0  0  0
    1.3656    2.1977   -1.5592 N   0  0  0  0  0  0  0  0  0  0  0  0
  1  2  1  0
  2  3  2  0
  4  2  1  1
  4  5  1  0
  5  6  1  0
  6  7  1  0
  7  8  1  0
  8  9  1  0
  9 10  2  0
 11  9  1  1
 11 12  1  0
 12 13  1  0
 13 14  1  0
 14 15  1  0
  8  4  1  0
 15 11  1  0
M  RAD  1   1   2
M  END

