
     RDKit          3D

 52 54  0  0  0  0  0  0  0  0999 V2000
   -2.0786   -0.5760    2.1545 C   0  0  0  0  0  0  0  0  0  0  0  0
   -0.8373   -1.3340    2.2181 C   0  0  0  0  0  0  0  0  0  0  0  0
   -0.9951   -2.7088    2.8222 C   0  0  0  0  0  0  0  0  0  0  0  0
    0.0279   -1.2874    1.0589 C   0  0  0  0  0  0  0  0  0  0  0  0
   -0.6841   -1.8803   -0.2698 C   0  0  2  0  0  0  0  0  0  0  0  0
    0.6112   -1.6772   -1.1864 N   0  0  0  0  0  0  0  0  0  0  0  0
    1.4684   -0.6357   -0.9595 C   0  0  0  0  0  0  0  0  0  0  0  0
    1.2812    0.1950   -0.0290 O   0  0  0  0  0  0  0  0  0  0  0  0
    2.6592   -0.5167   -1.8754 C   0  0  0  0  0  0  0  0  0  0  0  0
    3.4226    0.7061   -1.4182 C   0  0  0  0  0  0  0  0  0  0  0  0
    3.8620    0.5384    0.0107 C   0  0  0  0  0  0  0  0  0  0  0  0
    4.7431   -0.6467    0.1479 C   0  0  0  0  0  0  0  0  0  0  0  0
    5.0550   -1.4119   -0.9409 O   0  0  0  0  0  1  0  0  0  0  0  0
    5.2131   -0.9585    1.2771 O   0  0  0  0  0  0  0  0  0  0  0  0
   -1.4369   -0.5755   -0.7414 C   0  0  0  0  0  0  0  0  0  0  0  0
   -0.9205    0.2921   -1.4105 O   0  0  0  0  0  0  0  0  0  0  0  0
   -2.7624   -0.4951   -0.3329 N   0  0  0  0  0  0  0  0  0  0  0  0
   -3.6392    0.6357   -0.6734 C   0  0  0  0  0  0  0  0  0  0  0  0
   -3.0104    1.8835   -0.0951 C   0  0  0  0  0  0  0  0  0  0  0  0
   -3.7941    3.0917   -0.3666 C   0  0  0  0  0  0  0  0  0  0  0  0
   -3.3251    4.3400    0.1179 N   0  0  0  0  0  0  0  0  0  0  0  0
   -4.8599    3.0217   -1.0153 O   0  0  0  0  0  0  0  0  0  0  0  0
    6.1085    0.6503   -3.1263 C   0  0  0  0  0  0  0  0  0  0  0  0
    5.0844    1.1852   -1.8861 C   0  0  2  0  0  0  0  0  0  0  0  0
    5.7784    0.0985   -0.8433 C   0  0  0  0  0  0  0  0  0  0  0  0
    5.1169    0.2643    0.4175 N   0  0  0  0  0  0  0  0  0  0  0  0
    5.3571    1.0542    1.4206 N   0  0  0  0  0  0  0  0  0  0  0  0
    4.4828    0.8265    2.4049 C   0  0  0  0  0  0  0  0  0  0  0  0
    3.6786   -0.1466    1.9732 N   0  0  0  0  0  0  0  0  0  0  0  0
    4.0648   -0.4888    0.7631 N   0  0  0  0  0  0  0  0  0  0  0  0
    3.9419    0.1923   -2.3283 N   0  0  0  0  0  0  0  0  0  0  0  0
    2.6767    0.5518   -1.7295 C   0  0  0  0  0  0  0  0  0  0  0  0
    2.5169    1.6042   -0.9264 N   0  0  0  0  0  0  0  0  0  0  0  0
    1.3395    1.8943   -0.4012 C   0  0  0  0  0  0  0  0  0  0  0  0
    0.2417    1.1029   -0.6787 C   0  0  0  0  0  0  0  0  0  0  0  0
   -0.9898    1.3393   -0.1772 C   0  0  0  0  0  0  0  0  0  0  0  0
   -2.0802    0.4739   -0.5100 C   0  0  0  0  0  0  0  0  0  0  0  0
   -3.2312    0.8363    0.0575 O   0  0  0  0  0  0  0  0  0  0  0  0
   -4.0552    0.3019    0.9781 C   0  0  0  0  0  0  0  0  0  0  0  0
   -4.1235    1.0268    2.2240 C   0  0  0  0  0  0  0  0  0  0  0  0
   -4.9037    0.6269    3.2499 C   0  0  0  0  0  0  0  0  0  0  0  0
   -5.6998   -0.4976    3.2070 C   0  0  0  0  0  0  0  0  0  0  0  0
   -6.4695   -0.8722    4.2519 F   0  0  0  0  0  0  0  0  0  0  0  0
   -5.6515   -1.2011    2.0325 C   0  0  0  0  0  0  0  0  0  0  0  0
   -4.8464   -0.8036    0.9484 C   0  0  0  0  0  0  0  0  0  0  0  0
   -4.9150   -1.5515   -0.1880 F   0  0  0  0  0  0  0  0  0  0  0  0
   -1.8162   -0.5712   -1.3378 C   0  0  0  0  0  0  0  0  0  0  0  0
   -2.7143   -1.4057   -1.7072 O   0  0  0  0  0  0  0  0  0  0  0  0
   -0.5785   -0.7980   -1.8331 N   0  0  0  0  0  0  0  0  0  0  0  0
   -0.3772   -1.9510   -2.7206 C   0  0  0  0  0  0  0  0  0  0  0  0
    0.4299    0.0211   -1.5108 C   0  0  0  0  0  0  0  0  0  0  0  0
    1.6339   -0.2427   -2.0241 N   0  0  0  0  0  0  0  0  0  0  0  0
  1  2  1  0
  2  3  1  0
  2  4  1  0
  5  4  1  1
  5  6  1  0
  6  7  1  0
  7  8  2  0
  7  9  1  0
  9 10  1  0
 10 11  1  0
 11 12  1  0
 12 13  1  0
 12 14  2  0
  5 15  1  0
 15 16  2  0
 15 17  1  0
 17 18  1  0
 18 19  1  0
 19 20  1  0
 20 21  1  0
 20 22  2  0
 24 23  1  6
 24 25  1  0
 25 26  1  0
 26 27  1  0
 27 28  2  0
 28 29  1  0
 29 30  2  0
 24 31  1  0
 31 32  1  0
 32 33  2  0
 33 34  1  0
 34 35  2  0
 35 36  1  0
 36 37  2  0
 37 38  1  0
 38 39  1  0
 39 40  2  0
 40 41  1  0
 41 42  2  0
 42 43  1  0
 42 44  1  0
 44 45  2  0
 45 46  1  0
 37 47  1  0
 47 48  2  0
 47 49  1  0
 49 50  1  0
 49 51  1  0
 51 52  2  0
 30 26  1  0
 52 32  1  0
 51 35  1  0
 45 39  1  0
M  RAD  1  13   2
M  END

