
     RDKit          3D

 20 20  0  0  0  0  0  0  0  0999 V2000
   -5.3119   -1.0543    1.7218 C   0  0  0  0  0  0  0  0  0  0  0  0
   -5.3067   -1.3566    0.2412 C   0  0  0  0  0  0  0  0  0  0  0  0
   -6.1090   -0.3546   -0.5453 C   0  0  0  0  0  0  0  0  0  0  0  0
   -3.9176   -1.5203   -0.2988 C   0  0  0  0  0  0  0  0  0  0  0  0
   -3.1826   -0.2871   -0.0781 N   0  0  0  0  0  0  0  0  0  0  0  0
   -1.8498   -0.0935   -0.4616 C   0  0  0  0  0  0  0  0  0  0  0  0
   -1.2142   -0.9658   -1.0147 O   0  0  0  0  0  0  0  0  0  0  0  0
   -1.1549    1.2718   -0.1765 C   0  0  2  0  0  0  0  0  0  0  0  0
   -1.2088    1.7368   -1.7708 C   0  0  0  0  0  0  0  0  0  0  0  0
   -0.0117    2.6091   -1.7790 C   0  0  0  0  0  0  0  0  0  0  0  0
    0.8661    2.2038   -0.6371 C   0  0  0  0  0  0  0  0  0  0  0  0
    0.2914    0.9638   -0.1925 N   0  0  0  0  0  0  0  0  0  0  0  0
    1.0844   -0.1267    0.1264 C   0  0  0  0  0  0  0  0  0  0  0  0
    0.6064   -1.2260    0.5702 O   0  0  0  0  0  0  0  0  0  0  0  0
    2.5351   -0.1297   -0.0115 C   0  0  0  0  0  0  0  0  0  0  0  0
    3.2262   -1.3739    0.3721 C   0  0  0  0  0  0  0  0  0  0  0  0
    4.7108   -1.1751    0.1581 C   0  0  0  0  0  0  0  0  0  0  0  0
    5.1497   -0.0469    1.0091 C   0  0  0  0  0  0  0  0  0  0  0  0
    6.4727    0.3779    1.0303 O   0  0  0  0  0  1  0  0  0  0  0  0
    4.3244    0.5549    1.7368 O   0  0  0  0  0  0  0  0  0  0  0  0
  1  2  1  0
  2  3  1  0
  2  4  1  0
  4  5  1  0
  5  6  1  0
  6  7  2  0
  8  6  1  6
  8  9  1  0
  9 10  1  0
 10 11  1  0
 11 12  1  0
 12 13  1  0
 13 14  2  0
 13 15  1  0
 15 16  1  0
 16 17  1  0
 17 18  1  0
 18 19  1  0
 18 20  2  0
 12  8  1  0
M  RAD  1  19   2
M  END

