
     RDKit          3D

 52 54  0  0  0  0  0  0  0  0999 V2000
    3.0074   -3.4906   -0.1323 C   0  0  0  0  0  0  0  0  0  0  0  0
    2.0158   -2.6342    0.5698 C   0  0  0  0  0  0  0  0  0  0  0  0
    0.6770   -2.5629   -0.3370 C   0  0  2  0  0  0  0  0  0  0  0  0
    1.3645   -1.9159   -1.6343 C   0  0  0  0  0  0  0  0  0  0  0  0
    0.0371   -1.1600    0.3941 C   0  0  2  0  0  0  0  0  0  0  0  0
   -1.2447   -1.1139   -0.5154 N   0  0  0  0  0  0  0  0  0  0  0  0
   -2.1468   -0.0625   -0.2638 C   0  0  0  0  0  0  0  0  0  0  0  0
   -1.8944    0.7749    0.6559 O   0  0  0  0  0  0  0  0  0  0  0  0
   -3.3764    0.0679   -1.0604 C   0  0  0  0  0  0  0  0  0  0  0  0
   -4.1715    1.2533   -0.6080 C   0  0  0  0  0  0  0  0  0  0  0  0
   -4.5830    1.1585    0.8418 C   0  0  0  0  0  0  0  0  0  0  0  0
   -5.4070   -0.0518    0.9954 C   0  0  0  0  0  0  0  0  0  0  0  0
   -5.9308   -0.3719    2.2670 N   0  0  0  0  0  0  0  0  0  0  0  0
   -5.6434   -0.7901    0.0168 O   0  0  0  0  0  0  0  0  0  0  0  0
    0.8673   -0.0498   -0.3336 C   0  0  0  0  0  0  0  0  0  0  0  0
    0.5007    0.5735   -1.2927 O   0  0  0  0  0  0  0  0  0  0  0  0
    2.1313    0.1761    0.2420 N   0  0  0  0  0  0  0  0  0  0  0  0
    3.0502    1.1672   -0.2906 C   0  0  0  0  0  0  0  0  0  0  0  0
    4.3199    1.1499    0.5678 C   0  0  0  0  0  0  0  0  0  0  0  0
    5.2758    2.1801    0.0140 C   0  0  0  0  0  0  0  0  0  0  0  0
    6.5294    2.1535    0.8728 C   0  0  0  0  0  0  0  0  0  0  0  0
    4.6215    3.5486    0.1770 C   0  0  0  0  0  0  0  0  0  0  0  0
   -4.6391   -0.5480    0.5065 C   0  0  0  0  0  0  0  0  0  0  0  0
   -4.7987    0.8853    1.3290 C   0  0  2  0  0  0  0  0  0  0  0  0
   -3.8716    1.7055    0.2205 C   0  0  0  0  0  0  0  0  0  0  0  0
   -4.6950    1.4811   -0.9756 N   0  0  0  0  0  0  0  0  0  0  0  0
   -5.6581    2.2728   -1.3783 N   0  0  0  0  0  0  0  0  0  0  0  0
   -6.1711    1.7326   -2.4914 C   0  0  0  0  0  0  0  0  0  0  0  0
   -5.4858    0.6009   -2.7357 N   0  0  0  0  0  0  0  0  0  0  0  0
   -4.5751    0.4571   -1.7899 N   0  0  0  0  0  0  0  0  0  0  0  0
   -3.6628    0.5427    2.3471 N   0  0  0  0  0  0  0  0  0  0  0  0
   -2.3715    0.3311    1.9699 C   0  0  0  0  0  0  0  0  0  0  0  0
   -1.4150    0.0317    2.8843 N   0  0  0  0  0  0  0  0  0  0  0  0
   -0.1441   -0.1768    2.5571 C   0  0  0  0  0  0  0  0  0  0  0  0
    0.2597   -0.0961    1.2562 C   0  0  0  0  0  0  0  0  0  0  0  0
    1.5819   -0.3063    0.8685 C   0  0  0  0  0  0  0  0  0  0  0  0
    1.8899   -0.2023   -0.4628 C   0  0  0  0  0  0  0  0  0  0  0  0
    3.1792   -0.4014   -0.8892 O   0  0  0  0  0  0  0  0  0  0  0  0
    4.2369   -0.7121   -0.0445 C   0  0  0  0  0  0  0  0  0  0  0  0
    5.3240    0.1339    0.0231 C   0  0  0  0  0  0  0  0  0  0  0  0
    6.4041   -0.1290    0.8483 C   0  0  0  0  0  0  0  0  0  0  0  0
    6.4346   -1.2567    1.6413 C   0  0  0  0  0  0  0  0  0  0  0  0
    7.4750   -1.5453    2.4605 F   0  0  0  0  0  0  0  0  0  0  0  0
    5.3472   -2.1044    1.5747 C   0  0  0  0  0  0  0  0  0  0  0  0
    4.2664   -1.8407    0.7486 C   0  0  0  0  0  0  0  0  0  0  0  0
    3.1923   -2.6754    0.6810 F   0  0  0  0  0  0  0  0  0  0  0  0
    0.9337    0.1007   -1.4062 C   0  0  0  0  0  0  0  0  0  0  0  0
    1.2578    0.1873   -2.6206 O   0  0  0  0  0  0  0  0  0  0  0  0
   -0.3440    0.3010   -1.0082 N   0  0  0  0  0  0  0  0  0  0  0  0
   -1.3133    0.6194   -2.0378 C   0  0  0  0  0  0  0  0  0  0  0  0
   -0.6708    0.2028    0.3049 C   0  0  0  0  0  0  0  0  0  0  0  0
   -1.9665    0.4087    0.6916 N   0  0  0  0  0  0  0  0  0  0  0  0
  1  2  1  0
  2  3  1  0
  3  4  1  6
  3  5  1  0
  5  6  1  6
  6  7  1  0
  7  8  2  0
  7  9  1  0
  9 10  1  0
 10 11  1  0
 11 12  1  0
 12 13  1  0
 12 14  2  0
  5 15  1  0
 15 16  2  0
 15 17  1  0
 17 18  1  0
 18 19  1  0
 19 20  1  0
 20 21  1  0
 20 22  1  0
 24 23  1  6
 24 25  1  0
 25 26  1  0
 26 27  1  0
 27 28  2  0
 28 29  1  0
 29 30  2  0
 24 31  1  0
 31 32  1  0
 32 33  2  0
 33 34  1  0
 34 35  2  0
 35 36  1  0
 36 37  2  0
 37 38  1  0
 38 39  1  0
 39 40  2  0
 40 41  1  0
 41 42  2  0
 42 43  1  0
 42 44  1  0
 44 45  2  0
 45 46  1  0
 37 47  1  0
 47 48  2  0
 47 49  1  0
 49 50  1  0
 49 51  1  0
 51 52  2  0
 30 26  1  0
 52 32  1  0
 51 35  1  0
 45 39  1  0
M  END

