
     RDKit          3D

 49 52  0  0  0  0  0  0  0  0999 V2000
    4.7919   -2.2752    1.3905 C   0  0  0  0  0  0  0  0  0  0  0  0
    5.3342   -1.1548    0.3031 C   0  0  2  0  0  0  0  0  0  0  0  0
    4.6694    0.1176    1.1041 C   0  0  0  0  0  0  0  0  0  0  0  0
    5.0189    1.2815    0.3146 N   0  0  0  0  0  0  0  0  0  0  0  0
    6.1143    1.9845    0.4951 N   0  0  0  0  0  0  0  0  0  0  0  0
    6.1487    3.0063   -0.4005 C   0  0  0  0  0  0  0  0  0  0  0  0
    5.0351    2.8956   -1.1282 N   0  0  0  0  0  0  0  0  0  0  0  0
    4.3662    1.8480   -0.6810 N   0  0  0  0  0  0  0  0  0  0  0  0
    4.1246   -1.3545   -0.6701 N   0  0  0  0  0  0  0  0  0  0  0  0
    2.8274   -1.2175   -0.1213 C   0  0  0  0  0  0  0  0  0  0  0  0
    2.6591   -0.9326    1.1807 N   0  0  0  0  0  0  0  0  0  0  0  0
    1.4681   -0.7865    1.7783 C   0  0  0  0  0  0  0  0  0  0  0  0
    0.3346   -0.9398    0.9997 C   0  0  0  0  0  0  0  0  0  0  0  0
   -0.9419   -0.8153    1.4926 C   0  0  0  0  0  0  0  0  0  0  0  0
   -2.0405   -0.9775    0.6751 C   0  0  0  0  0  0  0  0  0  0  0  0
   -3.3475   -0.8613    1.1275 O   0  0  0  0  0  0  0  0  0  0  0  0
   -4.1890    0.1069    0.5695 C   0  0  0  0  0  0  0  0  0  0  0  0
   -3.7840    0.9627   -0.4184 C   0  0  0  0  0  0  0  0  0  0  0  0
   -4.6441    1.9108   -0.9492 C   0  0  0  0  0  0  0  0  0  0  0  0
   -5.9385    1.9935   -0.4704 C   0  0  0  0  0  0  0  0  0  0  0  0
   -6.7786    2.9053   -0.9754 F   0  0  0  0  0  0  0  0  0  0  0  0
   -6.3775    1.1447    0.5255 C   0  0  0  0  0  0  0  0  0  0  0  0
   -5.4869    0.1977    1.0422 C   0  0  0  0  0  0  0  0  0  0  0  0
   -5.8766   -0.6574    2.0228 F   0  0  0  0  0  0  0  0  0  0  0  0
   -1.8513   -1.2698   -0.6599 C   0  0  0  0  0  0  0  0  0  0  0  0
   -2.8233   -1.4279   -1.4501 O   0  0  0  0  0  0  0  0  0  0  0  0
   -0.5792   -1.3906   -1.1355 N   0  0  0  0  0  0  0  0  0  0  0  0
   -0.4355   -1.7000   -2.5525 C   0  0  0  0  0  0  0  0  0  0  0  0
    0.4884   -1.2332   -0.3424 C   0  0  0  0  0  0  0  0  0  0  0  0
    1.7132   -1.3612   -0.8543 N   0  0  0  0  0  0  0  0  0  0  0  0
    0.0800    0.9915   -1.5780 O   0  0  0  0  0  0  0  0  0  0  0  0
   -0.1557    0.0237   -2.3131 C   0  0  0  0  0  0  0  0  0  0  0  0
   -1.5271   -0.4624   -2.5628 C   0  0  0  0  0  0  0  0  0  0  0  0
   -2.5327    0.2958   -1.7830 C   0  0  0  0  0  0  0  0  0  0  0  0
   -2.3739    0.2066   -0.3094 C   0  0  0  0  0  0  0  0  0  0  0  0
   -2.9868   -0.8414    0.3896 C   0  0  0  0  0  0  0  0  0  0  0  0
   -2.8690   -0.9417    1.7555 C   0  0  0  0  0  0  0  0  0  0  0  0
   -2.1507   -0.0261    2.4900 C   0  0  0  0  0  0  0  0  0  0  0  0
   -2.0863   -0.2057    3.8567 O   0  0  0  0  0  0  0  0  0  0  0  0
   -1.5369    1.0167    1.8235 C   0  0  0  0  0  0  0  0  0  0  0  0
   -1.6685    1.0960    0.4606 C   0  0  0  0  0  0  0  0  0  0  0  0
    0.9880   -0.5980   -2.9092 N   0  0  0  0  0  0  0  0  0  0  0  0
    2.3122   -0.1203   -2.6617 C   0  0  0  0  0  0  0  0  0  0  0  0
    2.6926   -0.1629   -1.2303 C   0  0  0  0  0  0  0  0  0  0  0  0
    3.8387    0.2377   -0.9183 O   0  0  0  0  0  0  0  0  0  0  0  0
    1.8470   -0.6262   -0.1915 N   0  0  0  0  0  0  0  0  0  0  0  0
    2.3256   -0.6232    1.1814 C   0  0  0  0  0  0  0  0  0  0  0  0
    2.6758    0.8019    1.5913 C   0  0  0  0  0  0  0  0  0  0  0  0
    3.1278    0.7552    2.9087 O   0  0  0  0  0  0  0  0  0  0  0  0
  2  1  1  1
  2  3  1  0
  3  4  1  0
  4  5  1  0
  5  6  2  0
  6  7  1  0
  7  8  2  0
  2  9  1  0
  9 10  1  0
 10 11  2  0
 11 12  1  0
 12 13  2  0
 13 14  1  0
 14 15  2  0
 15 16  1  0
 16 17  1  0
 17 18  2  0
 18 19  1  0
 19 20  2  0
 20 21  1  0
 20 22  1  0
 22 23  2  0
 23 24  1  0
 15 25  1  0
 25 26  2  0
 25 27  1  0
 27 28  1  0
 27 29  1  0
 29 30  2  0
 31 32  2  0
 32 33  1  0
 33 34  1  0
 34 35  1  0
 35 36  2  0
 36 37  1  0
 37 38  2  0
 38 39  1  0
 38 40  1  0
 40 41  2  0
 32 42  1  0
 42 43  1  0
 43 44  1  0
 44 45  2  0
 44 46  1  0
 46 47  1  0
 47 48  1  0
 48 49  1  0
  8  4  1  0
 30 10  1  0
 41 35  1  0
 29 13  1  0
 23 17  1  0
M  END

