
     RDKit          3D

 22 21  0  0  0  0  0  0  0  0999 V2000
   -0.8698   -4.2324    0.3306 C   0  0  0  0  0  0  0  0  0  0  0  0
   -0.6246   -3.4576    1.9316 S   0  0  0  0  0  0  0  0  0  0  0  0
   -0.9861   -1.7080    1.9436 C   0  0  0  0  0  0  0  0  0  0  0  0
   -0.0479   -0.8943    1.1031 C   0  0  0  0  0  0  0  0  0  0  0  0
   -0.2274   -1.4898   -0.4258 C   0  0  2  0  0  0  0  0  0  0  0  0
    0.7958   -0.5524   -1.1174 N   0  0  0  0  0  0  0  0  0  0  0  0
    1.7268    0.1535   -0.3766 C   0  0  0  0  0  0  0  0  0  0  0  0
    1.8224    0.1054    0.8844 O   0  0  0  0  0  0  0  0  0  0  0  0
    2.7027    1.0451   -1.0812 C   0  0  0  0  0  0  0  0  0  0  0  0
    3.6295    1.7079   -0.0803 C   0  0  0  0  0  0  0  0  0  0  0  0
    4.3680    0.5986    0.6638 C   0  0  0  0  0  0  0  0  0  0  0  0
    5.1488   -0.2049   -0.3532 C   0  0  0  0  0  0  0  0  0  0  0  0
    6.1249    0.7139   -1.0419 C   0  0  0  0  0  0  0  0  0  0  0  0
    5.5081    1.8051   -1.7270 N   0  0  0  0  0  4  0  0  0  0  0  0
   -1.5285   -0.6404   -0.7582 C   0  0  0  0  0  0  0  0  0  0  0  0
   -1.3860    0.3791   -1.4255 O   0  0  0  0  0  0  0  0  0  0  0  0
   -2.7602   -1.0535   -0.2978 N   0  0  0  0  0  0  0  0  0  0  0  0
   -3.9545   -0.2939   -0.5856 C   0  0  0  0  0  0  0  0  0  0  0  0
   -3.8345    1.1082   -0.0317 C   0  0  0  0  0  0  0  0  0  0  0  0
   -5.1435    1.8206   -0.3780 C   0  0  0  0  0  0  0  0  0  0  0  0
   -5.3928    1.8745   -1.8698 C   0  0  0  0  0  0  0  0  0  0  0  0
   -5.0713    3.2155    0.1918 C   0  0  0  0  0  0  0  0  0  0  0  0
  1  2  1  0
  2  3  1  0
  3  4  1  0
  5  4  1  1
  5  6  1  0
  6  7  1  0
  7  8  2  0
  7  9  1  0
  9 10  1  0
 10 11  1  0
 11 12  1  0
 12 13  1  0
 13 14  1  0
  5 15  1  0
 15 16  2  0
 15 17  1  0
 17 18  1  0
 18 19  1  0
 19 20  1  0
 20 21  1  0
 20 22  1  0
M  CHG  1  14   1
M  END

