
     RDKit          3D

 18 17  0  0  0  0  0  0  0  0999 V2000
   -2.8730    1.8756   -0.9340 O   0  0  0  0  0  1  0  0  0  0  0  0
   -3.8511    1.6746    0.0511 C   0  0  0  0  0  0  0  0  0  0  0  0
   -4.2775    2.6226    0.7346 O   0  0  0  0  0  0  0  0  0  0  0  0
   -4.4102    0.2574    0.2980 C   0  0  0  0  0  0  0  0  0  0  0  0
   -3.1526   -0.4440    0.9058 C   0  0  0  0  0  0  0  0  0  0  0  0
   -2.0755   -0.1943   -0.1954 C   0  0  0  0  0  0  0  0  0  0  0  0
   -0.8176   -0.7043    0.0530 N   0  0  0  0  0  0  0  0  0  0  0  0
   -0.3461   -1.9365    0.1585 C   0  0  0  0  0  0  0  0  0  0  0  0
   -0.9149   -3.0374    0.0306 O   0  0  0  0  0  0  0  0  0  0  0  0
    1.2413   -2.1586    0.5100 C   0  0  2  0  0  0  0  0  0  0  0  0
    1.3660   -1.0098    1.6318 C   0  0  0  0  0  0  0  0  0  0  0  0
    0.5942    0.0463    1.3433 O   0  0  0  0  0  0  0  0  0  0  0  0
    1.7362   -1.3738   -0.7613 N   0  0  0  0  0  0  0  0  0  0  0  0
    2.6898   -0.3390   -0.4192 C   0  0  0  0  0  0  0  0  0  0  0  0
    3.0773   -0.1524    0.7780 O   0  0  0  0  0  0  0  0  0  0  0  0
    3.2814    0.6058   -1.4327 C   0  0  0  0  0  0  0  0  0  0  0  0
    4.0771    1.6831   -0.6393 C   0  0  0  0  0  0  0  0  0  0  0  0
    4.6551    2.5846   -1.4607 O   0  0  0  0  0  0  0  0  0  0  0  0
  1  2  1  0
  2  3  2  0
  2  4  1  0
  4  5  1  0
  5  6  1  0
  6  7  1  0
  7  8  1  0
  8  9  2  0
  8 10  1  0
 10 11  1  1
 11 12  1  0
 10 13  1  0
 13 14  1  0
 14 15  2  0
 14 16  1  0
 16 17  1  0
 17 18  1  0
M  RAD  1   1   2
M  END

