
     RDKit          3D

 44 47  0  0  0  0  0  0  0  0999 V2000
    5.3667   -0.7647   -1.3052 C   0  0  0  0  0  0  0  0  0  0  0  0
    3.8657   -0.9423   -1.2088 C   0  0  0  0  0  0  0  0  0  0  0  0
    3.3491   -0.2803    0.0009 N   0  0  0  0  0  0  0  0  0  0  0  0
    1.9791   -0.2851    0.3450 C   0  0  0  0  0  0  0  0  0  0  0  0
    1.1965   -0.8866   -0.4328 O   0  0  0  0  0  0  0  0  0  0  0  0
    1.3958    0.3477    1.5243 C   0  0  0  0  0  0  0  0  0  0  0  0
   -0.0069    0.2218    1.6799 N   0  0  0  0  0  0  0  0  0  0  0  0
   -0.8430    0.7370    0.6791 C   0  0  0  0  0  0  0  0  0  0  0  0
   -0.3688    1.2680   -0.2786 O   0  0  0  0  0  0  0  0  0  0  0  0
   -2.3979    0.5449    0.9492 C   0  0  2  0  0  0  0  0  0  0  0  0
   -2.5415   -0.9624    0.2228 C   0  0  0  0  0  0  0  0  0  0  0  0
   -3.9525   -0.8630   -0.2700 C   0  0  0  0  0  0  0  0  0  0  0  0
   -4.1608    0.6140   -0.4631 C   0  0  0  0  0  0  0  0  0  0  0  0
   -2.8815    1.2512   -0.3864 N   0  0  0  0  0  0  0  0  0  0  0  0
    2.8710    0.8770    2.1714 C   0  0  0  0  0  0  0  0  0  0  0  0
    4.0005   -0.1102    1.4746 C   0  0  2  0  0  0  0  0  0  0  0  0
    5.2495    0.9363    1.8132 C   0  0  0  0  0  0  0  0  0  0  0  0
    6.3331    0.1416    1.2237 N   0  0  0  0  0  0  0  0  0  0  0  0
    7.0288   -0.7482    1.8817 N   0  0  0  0  0  0  0  0  0  0  0  0
    7.9245   -1.2688    1.0221 C   0  0  0  0  0  0  0  0  0  0  0  0
    7.7706   -0.6853   -0.1792 N   0  0  0  0  0  0  0  0  0  0  0  0
    6.7757    0.1825   -0.0152 N   0  0  0  0  0  0  0  0  0  0  0  0
    3.7827    0.5033    0.0411 N   0  0  0  0  0  0  0  0  0  0  0  0
    2.4950    0.3986   -0.5002 C   0  0  0  0  0  0  0  0  0  0  0  0
    2.2197    0.8930   -1.7147 N   0  0  0  0  0  0  0  0  0  0  0  0
    0.9525    0.7748   -2.2151 C   0  0  0  0  0  0  0  0  0  0  0  0
   -0.0405    0.1643   -1.5060 C   0  0  0  0  0  0  0  0  0  0  0  0
   -1.3279    0.0291   -1.9821 C   0  0  0  0  0  0  0  0  0  0  0  0
   -2.2710   -0.6066   -1.1900 C   0  0  0  0  0  0  0  0  0  0  0  0
   -3.5632   -0.7507   -1.6501 O   0  0  0  0  0  0  0  0  0  0  0  0
   -4.6433   -0.2038   -0.9671 C   0  0  0  0  0  0  0  0  0  0  0  0
   -5.6545   -1.0164   -0.4915 C   0  0  0  0  0  0  0  0  0  0  0  0
   -6.7306   -0.4803    0.1879 C   0  0  0  0  0  0  0  0  0  0  0  0
   -6.8555    0.8703    0.4261 C   0  0  0  0  0  0  0  0  0  0  0  0
   -7.9344    1.3437    1.0994 F   0  0  0  0  0  0  0  0  0  0  0  0
   -5.8462    1.6810   -0.0485 C   0  0  0  0  0  0  0  0  0  0  0  0
   -4.7676    1.1484   -0.7289 C   0  0  0  0  0  0  0  0  0  0  0  0
   -3.7699    1.9572   -1.1972 F   0  0  0  0  0  0  0  0  0  0  0  0
   -1.9456   -1.1011    0.0543 C   0  0  0  0  0  0  0  0  0  0  0  0
   -2.8228   -1.6860    0.7777 O   0  0  0  0  0  0  0  0  0  0  0  0
   -0.6799   -0.9428    0.4686 N   0  0  0  0  0  0  0  0  0  0  0  0
   -0.3578   -1.4743    1.7897 C   0  0  0  0  0  0  0  0  0  0  0  0
    0.2653   -0.3359   -0.2611 C   0  0  0  0  0  0  0  0  0  0  0  0
    1.5417   -0.2040    0.2155 N   0  0  0  0  0  0  0  0  0  0  0  0
  1  2  1  0
  2  3  1  0
  3  4  1  0
  4  5  2  0
  4  6  1  0
  6  7  1  0
  7  8  1  0
  8  9  2  0
 10  8  1  6
 10 11  1  0
 11 12  1  0
 12 13  1  0
 13 14  1  0
 16 15  1  1
 16 17  1  0
 17 18  1  0
 18 19  1  0
 19 20  2  0
 20 21  1  0
 21 22  2  0
 16 23  1  0
 23 24  1  0
 24 25  2  0
 25 26  1  0
 26 27  2  0
 27 28  1  0
 28 29  2  0
 29 30  1  0
 30 31  1  0
 31 32  2  0
 32 33  1  0
 33 34  2  0
 34 35  1  0
 34 36  1  0
 36 37  2  0
 37 38  1  0
 29 39  1  0
 39 40  2  0
 39 41  1  0
 41 42  1  0
 41 43  1  0
 43 44  2  0
 14 10  1  0
 22 18  1  0
 44 24  1  0
 43 27  1  0
 37 31  1  0
M  END

