
     RDKit          3D

 17 16  0  0  0  0  0  0  0  0999 V2000
   -4.9405   -2.1689    1.2881 C   0  0  0  0  0  0  0  0  0  0  0  0
   -3.4189   -2.2426    1.1887 C   0  0  0  0  0  0  0  0  0  0  0  0
   -2.9327   -1.3011    0.1133 C   0  0  0  0  0  0  0  0  0  0  0  0
   -3.7439   -0.6089   -0.5344 O   0  0  0  0  0  0  0  0  0  0  0  0
   -1.5479   -1.2687   -0.0912 N   0  0  0  0  0  0  0  0  0  0  0  0
   -0.9986   -0.3141   -1.1894 C   0  0  2  0  0  0  0  0  0  0  0  0
    0.3466    0.0680   -0.4413 C   0  0  0  0  0  0  0  0  0  0  0  0
    0.6633   -0.3562    0.6411 O   0  0  0  0  0  0  0  0  0  0  0  0
    1.2003    0.9741   -1.1376 N   0  0  0  0  0  0  0  0  0  0  0  0
    2.4356    1.3351   -0.4726 C   0  0  0  0  0  0  0  0  0  0  0  0
    3.2168    0.0574   -0.2589 C   0  0  0  0  0  0  0  0  0  0  0  0
    4.4890    0.4404    0.4283 C   0  0  0  0  0  0  0  0  0  0  0  0
    5.3849   -0.6471    0.7237 N   0  0  0  0  0  0  0  0  0  0  0  0
    4.7697    1.6256    0.7320 O   0  0  0  0  0  0  0  0  0  0  0  0
   -1.8350    0.9977   -0.7094 C   0  0  0  0  0  0  0  0  0  0  0  0
   -1.4838    1.3501    0.6667 C   0  0  0  0  0  0  0  0  0  0  0  0
   -1.6049    2.0592   -1.7429 C   0  0  0  0  0  0  0  0  0  0  0  0
  1  2  1  0
  2  3  1  0
  3  4  2  0
  3  5  1  0
  6  5  1  1
  6  7  1  0
  7  8  2  0
  7  9  1  0
  9 10  1  0
 10 11  1  0
 11 12  1  0
 12 13  1  0
 12 14  2  0
  6 15  1  0
 15 16  1  0
 15 17  1  0
M  END

