
     RDKit          3D

 52 56  0  0  0  0  0  0  0  0999 V2000
   -2.8851   -2.8487    0.6381 C   0  0  0  0  0  0  0  0  0  0  0  0
   -2.0045   -2.5917   -0.6975 C   0  0  1  0  0  0  0  0  0  0  0  0
   -3.0818   -2.9822   -1.6350 O   0  0  0  0  0  0  0  0  0  0  0  0
   -2.1312   -0.9522   -0.9044 C   0  0  2  0  0  0  0  0  0  0  0  0
   -0.9529   -0.5824    0.0715 N   0  0  0  0  0  0  0  0  0  0  0  0
    0.3378   -0.8904   -0.4919 C   0  0  0  0  0  0  0  0  0  0  0  0
    0.3416   -1.5051   -1.5700 O   0  0  0  0  0  0  0  0  0  0  0  0
    1.5164   -0.4284    0.2598 C   0  0  0  0  0  0  0  0  0  0  0  0
    2.6632   -0.5027   -0.7189 C   0  0  0  0  0  0  0  0  0  0  0  0
    3.9198    0.1310   -0.2676 C   0  0  0  0  0  0  0  0  0  0  0  0
    4.8735   -0.4994    0.4368 C   0  0  0  0  0  0  0  0  0  0  0  0
    6.0158    0.0663    0.8411 C   0  0  0  0  0  0  0  0  0  0  0  0
    6.2252    1.3747    0.5254 C   0  0  0  0  0  0  0  0  0  0  0  0
    5.2703    2.1032   -0.2065 C   0  0  0  0  0  0  0  0  0  0  0  0
    4.0982    1.4898   -0.6239 C   0  0  0  0  0  0  0  0  0  0  0  0
   -3.2602   -0.5090    0.0448 C   0  0  0  0  0  0  0  0  0  0  0  0
   -4.1278   -1.2459    0.5285 O   0  0  0  0  0  0  0  0  0  0  0  0
   -3.3487    0.8695    0.4380 N   0  0  0  0  0  0  0  0  0  0  0  0
   -4.3121    1.4820    1.2865 C   0  0  0  0  0  0  0  0  0  0  0  0
   -4.1025    2.9697    1.1740 C   0  0  0  0  0  0  0  0  0  0  0  0
   -2.7365    3.1838    0.6425 C   0  0  0  0  0  0  0  0  0  0  0  0
   -2.3186    1.8683    0.0597 C   0  0  0  0  0  0  0  0  0  0  0  0
    4.9989   -1.6924    0.5364 C   0  0  0  0  0  0  0  0  0  0  0  0
    5.2478   -1.1513   -0.9906 C   0  0  2  0  0  0  0  0  0  0  0  0
    4.7347    0.3651   -0.6714 C   0  0  0  0  0  0  0  0  0  0  0  0
    5.6253    0.8454    0.3620 N   0  0  0  0  0  0  0  0  0  0  0  0
    6.7702    1.4859    0.2554 N   0  0  0  0  0  0  0  0  0  0  0  0
    7.2855    1.7537    1.4805 C   0  0  0  0  0  0  0  0  0  0  0  0
    6.3988    1.2451    2.3456 N   0  0  0  0  0  0  0  0  0  0  0  0
    5.4078    0.7032    1.6586 N   0  0  0  0  0  0  0  0  0  0  0  0
    3.8909   -1.6542   -1.5504 N   0  0  0  0  0  0  0  0  0  0  0  0
    2.7031   -1.2244   -0.9610 C   0  0  0  0  0  0  0  0  0  0  0  0
    2.6931   -0.3706    0.0997 N   0  0  0  0  0  0  0  0  0  0  0  0
    1.5440    0.0389    0.6619 C   0  0  0  0  0  0  0  0  0  0  0  0
    0.3102   -0.3958    0.1795 C   0  0  0  0  0  0  0  0  0  0  0  0
   -0.8701    0.0071    0.7333 C   0  0  0  0  0  0  0  0  0  0  0  0
   -2.1290   -0.4457    0.2282 C   0  0  0  0  0  0  0  0  0  0  0  0
   -3.1967   -0.0056    0.8229 O   0  0  0  0  0  0  0  0  0  0  0  0
   -4.3253    0.6419    0.8847 C   0  0  0  0  0  0  0  0  0  0  0  0
   -4.3971    1.7633    1.7712 C   0  0  0  0  0  0  0  0  0  0  0  0
   -5.5500    2.4584    1.8619 C   0  0  0  0  0  0  0  0  0  0  0  0
   -6.6944    2.1718    1.1540 C   0  0  0  0  0  0  0  0  0  0  0  0
   -7.8196    2.9221    1.2983 F   0  0  0  0  0  0  0  0  0  0  0  0
   -6.6320    1.1008    0.3057 C   0  0  0  0  0  0  0  0  0  0  0  0
   -5.4559    0.3535    0.1824 C   0  0  0  0  0  0  0  0  0  0  0  0
   -5.5756   -0.6986   -0.6979 F   0  0  0  0  0  0  0  0  0  0  0  0
   -2.0331   -1.2900   -0.8230 C   0  0  0  0  0  0  0  0  0  0  0  0
   -3.0858   -1.7498   -1.3417 O   0  0  0  0  0  0  0  0  0  0  0  0
   -0.8379   -1.6881   -1.3720 N   0  0  0  0  0  0  0  0  0  0  0  0
   -0.8528   -2.5955   -2.4973 C   0  0  0  0  0  0  0  0  0  0  0  0
    0.3314   -1.2589   -0.8933 C   0  0  0  0  0  0  0  0  0  0  0  0
    1.5137   -1.6352   -1.4157 N   0  0  0  0  0  0  0  0  0  0  0  0
  2  1  1  1
  2  3  1  0
  2  4  1  0
  4  5  1  1
  5  6  1  0
  6  7  2  0
  6  8  1  0
  8  9  1  0
  9 10  1  0
 10 11  2  0
 11 12  1  0
 12 13  2  0
 13 14  1  0
 14 15  2  0
  4 16  1  0
 16 17  2  0
 16 18  1  0
 18 19  1  0
 19 20  1  0
 20 21  1  0
 21 22  1  0
 24 23  1  1
 24 25  1  0
 25 26  1  0
 26 27  1  0
 27 28  2  0
 28 29  1  0
 29 30  2  0
 24 31  1  0
 31 32  1  0
 32 33  2  0
 33 34  1  0
 34 35  2  0
 35 36  1  0
 36 37  2  0
 37 38  1  0
 38 39  1  0
 39 40  2  0
 40 41  1  0
 41 42  2  0
 42 43  1  0
 42 44  1  0
 44 45  2  0
 45 46  1  0
 37 47  1  0
 47 48  2  0
 47 49  1  0
 49 50  1  0
 49 51  1  0
 51 52  2  0
 15 10  1  0
 22 18  1  0
 30 26  1  0
 52 32  1  0
 51 35  1  0
 45 39  1  0
M  END

