
     RDKit          3D

 18 17  0  0  0  0  0  0  0  0999 V2000
   -2.7010    2.2517   -0.1585 C   0  0  0  0  0  0  0  0  0  0  0  0
   -1.6586    2.9356   -0.9899 C   0  0  0  0  0  0  0  0  0  0  0  0
   -1.7657    4.4374   -0.9392 C   0  0  0  0  0  0  0  0  0  0  0  0
   -0.2660    2.4500   -0.8427 C   0  0  0  0  0  0  0  0  0  0  0  0
   -0.4252    0.8550   -1.3068 C   0  0  2  0  0  0  0  0  0  0  0  0
   -1.4294    0.4338   -0.2347 N   0  0  0  0  0  0  0  0  0  0  0  0
   -1.4478   -0.6370    0.5631 C   0  0  0  0  0  0  0  0  0  0  0  0
   -0.5411   -1.5107    0.4955 O   0  0  0  0  0  0  0  0  0  0  0  0
   -2.5323   -0.8409    1.5623 C   0  0  0  0  0  0  0  0  0  0  0  0
   -2.2994   -2.0680    2.3959 C   0  0  0  0  0  0  0  0  0  0  0  0
   -2.2423   -3.2311    1.6318 O   0  0  0  0  0  0  0  0  0  0  0  0
    0.9044    0.3892   -0.6036 C   0  0  0  0  0  0  0  0  0  0  0  0
    0.9229    0.5301    0.6316 O   0  0  0  0  0  0  0  0  0  0  0  0
    1.9601   -0.1354   -1.2772 N   0  0  0  0  0  0  0  0  0  0  0  0
    3.2257   -0.6471   -1.0286 C   0  0  0  0  0  0  0  0  0  0  0  0
    3.1237   -2.0029   -0.1254 C   0  0  1  0  0  0  0  0  0  0  0  0
    4.6668   -1.8722    0.4497 C   0  0  0  0  0  0  0  0  0  0  0  0
    2.5050   -1.3374    1.0766 O   0  0  0  0  0  0  0  0  0  0  0  0
  1  2  1  0
  2  3  1  0
  2  4  1  0
  5  4  1  1
  5  6  1  0
  6  7  1  0
  7  8  2  0
  7  9  1  0
  9 10  1  0
 10 11  1  0
  5 12  1  0
 12 13  2  0
 12 14  1  0
 14 15  1  0
 15 16  1  0
 16 17  1  1
 16 18  1  0
M  END

