
     RDKit          3D

 22 22  0  0  0  0  0  0  0  0999 V2000
    4.5544    2.3882    1.0159 C   0  0  0  0  0  0  0  0  0  0  0  0
    3.6008    0.8662    0.7589 S   0  0  0  0  0  0  0  0  0  0  0  0
    4.5484   -0.6097    1.1624 C   0  0  0  0  0  0  0  0  0  0  0  0
    3.8346   -1.8869    0.9478 C   0  0  0  0  0  0  0  0  0  0  0  0
    3.3511   -2.2029   -0.4050 C   0  0  0  0  0  0  0  0  0  0  0  0
    2.3655   -1.1812   -0.7946 N   0  0  0  0  0  0  0  0  0  0  0  0
    1.1472   -0.9820   -0.0812 C   0  0  0  0  0  0  0  0  0  0  0  0
    0.8819   -1.6308    0.8619 O   0  0  0  0  0  0  0  0  0  0  0  0
    0.3039    0.1418   -0.7193 C   0  0  2  0  0  0  0  0  0  0  0  0
    0.1512    0.9683    0.7234 C   0  0  0  0  0  0  0  0  0  0  0  0
   -0.6501    2.1723    0.4788 C   0  0  0  0  0  0  0  0  0  0  0  0
    0.0303    3.0474   -0.5325 C   0  0  0  0  0  0  0  0  0  0  0  0
   -0.9194    4.2523   -0.6704 C   0  0  0  0  0  0  0  0  0  0  0  0
   -0.9830    4.8154    0.6786 N   0  0  0  0  0  4  0  0  0  0  0  0
   -1.0979   -0.3464   -0.8169 N   0  0  0  0  0  0  0  0  0  0  0  0
   -1.7953   -1.3898   -0.4170 C   0  0  0  0  0  0  0  0  0  0  0  0
   -1.3236   -2.3185    0.2379 O   0  0  0  0  0  0  0  0  0  0  0  0
   -3.3214   -1.6705   -0.6786 C   0  0  2  0  0  0  0  0  0  0  0  0
   -3.9684   -0.2595   -0.2031 C   0  0  0  0  0  0  0  0  0  0  0  0
   -3.5333   -0.1648    1.2009 C   0  0  0  0  0  0  0  0  0  0  0  0
   -3.4971   -1.5645    1.6648 C   0  0  0  0  0  0  0  0  0  0  0  0
   -3.6797   -2.4444    0.5910 N   0  0  0  0  0  0  0  0  0  0  0  0
  1  2  1  0
  2  3  1  0
  3  4  1  0
  4  5  1  0
  5  6  1  0
  6  7  1  0
  7  8  2  0
  7  9  1  0
  9 10  1  1
 10 11  1  0
 11 12  1  0
 12 13  1  0
 13 14  1  0
  9 15  1  0
 15 16  1  0
 16 17  2  0
 18 16  1  1
 18 19  1  0
 19 20  1  0
 20 21  1  0
 21 22  1  0
 22 18  1  0
M  CHG  1  14   1
M  END

