
     RDKit          3D

 46 48  0  0  0  0  0  0  0  0999 V2000
    4.1114   -0.0437   -1.8971 C   0  0  0  0  0  0  0  0  0  0  0  0
    4.6425   -0.1890   -0.5229 C   0  0  0  0  0  0  0  0  0  0  0  0
    5.1979    1.1188   -0.0182 C   0  0  0  0  0  0  0  0  0  0  0  0
    3.7998   -0.9104    0.4347 C   0  0  0  0  0  0  0  0  0  0  0  0
    2.5105   -0.4276    0.7393 N   0  0  0  0  0  0  0  0  0  0  0  0
    1.4554   -0.2749   -0.1701 C   0  0  0  0  0  0  0  0  0  0  0  0
    1.5317   -0.5466   -1.3312 O   0  0  0  0  0  0  0  0  0  0  0  0
    0.1232    0.3074    0.5146 C   0  0  2  0  0  0  0  0  0  0  0  0
   -0.4357   -1.1833    1.0049 C   0  0  0  0  0  0  0  0  0  0  0  0
   -0.7622    0.3160   -0.8037 N   0  0  0  0  0  0  0  0  0  0  0  0
   -2.1371    0.3188   -0.5297 C   0  0  0  0  0  0  0  0  0  0  0  0
   -2.5857    0.3147    0.6362 O   0  0  0  0  0  0  0  0  0  0  0  0
   -3.1233    0.3275   -1.6527 C   0  0  0  0  0  0  0  0  0  0  0  0
   -4.5216    0.3274   -1.1339 C   0  0  0  0  0  0  0  0  0  0  0  0
   -4.8359    1.5171   -0.2740 C   0  0  0  0  0  0  0  0  0  0  0  0
   -4.9710   -0.9721   -0.5521 C   0  0  0  0  0  0  0  0  0  0  0  0
    4.3516   -0.0997    2.4681 C   0  0  0  0  0  0  0  0  0  0  0  0
    4.9198   -1.4795    1.7529 C   0  0  2  0  0  0  0  0  0  0  0  0
    6.2909   -0.7620    1.1911 C   0  0  0  0  0  0  0  0  0  0  0  0
    5.9195    0.3079    0.3319 N   0  0  0  0  0  0  0  0  0  0  0  0
    5.7083    0.2950   -0.9754 N   0  0  0  0  0  0  0  0  0  0  0  0
    5.3726    1.5241   -1.4066 C   0  0  0  0  0  0  0  0  0  0  0  0
    5.3819    2.3079   -0.3163 N   0  0  0  0  0  0  0  0  0  0  0  0
    5.7095    1.5543    0.6922 N   0  0  0  0  0  0  0  0  0  0  0  0
    4.1020   -1.2634    0.4240 N   0  0  0  0  0  0  0  0  0  0  0  0
    2.6953   -1.2171    0.6326 C   0  0  0  0  0  0  0  0  0  0  0  0
    2.1082   -1.3406    1.8146 N   0  0  0  0  0  0  0  0  0  0  0  0
    0.7658   -1.2803    1.8898 C   0  0  0  0  0  0  0  0  0  0  0  0
   -0.0299   -1.0930    0.7732 C   0  0  0  0  0  0  0  0  0  0  0  0
   -1.3787   -1.0283    0.8215 C   0  0  0  0  0  0  0  0  0  0  0  0
   -2.2011   -0.8312   -0.3584 C   0  0  0  0  0  0  0  0  0  0  0  0
   -3.5196   -0.7947   -0.1252 O   0  0  0  0  0  0  0  0  0  0  0  0
   -4.4833    0.1167   -0.2304 C   0  0  0  0  0  0  0  0  0  0  0  0
   -5.0580    0.5908    1.0104 C   0  0  0  0  0  0  0  0  0  0  0  0
   -6.0447    1.5110    1.0616 C   0  0  0  0  0  0  0  0  0  0  0  0
   -6.5828    2.0723   -0.0718 C   0  0  0  0  0  0  0  0  0  0  0  0
   -7.5679    2.9937   -0.0477 F   0  0  0  0  0  0  0  0  0  0  0  0
   -6.0622    1.6447   -1.2604 C   0  0  0  0  0  0  0  0  0  0  0  0
   -5.0281    0.6800   -1.3350 C   0  0  0  0  0  0  0  0  0  0  0  0
   -4.6342    0.2978   -2.5685 F   0  0  0  0  0  0  0  0  0  0  0  0
   -1.5175   -0.7159   -1.5277 C   0  0  0  0  0  0  0  0  0  0  0  0
   -2.1154   -0.5473   -2.6189 O   0  0  0  0  0  0  0  0  0  0  0  0
   -0.1490   -0.7864   -1.5343 N   0  0  0  0  0  0  0  0  0  0  0  0
    0.5044   -0.6533   -2.8191 C   0  0  0  0  0  0  0  0  0  0  0  0
    0.5995   -0.9668   -0.4470 C   0  0  0  0  0  0  0  0  0  0  0  0
    1.9431   -1.0367   -0.4493 N   0  0  0  0  0  0  0  0  0  0  0  0
  1  2  1  0
  2  3  1  0
  2  4  1  0
  4  5  1  0
  5  6  1  0
  6  7  2  0
  6  8  1  0
  8  9  1  1
  8 10  1  0
 10 11  1  0
 11 12  2  0
 11 13  1  0
 13 14  1  0
 14 15  1  0
 14 16  1  0
 18 17  1  1
 18 19  1  0
 19 20  1  0
 20 21  1  0
 21 22  2  0
 22 23  1  0
 23 24  2  0
 18 25  1  0
 25 26  1  0
 26 27  2  0
 27 28  1  0
 28 29  2  0
 29 30  1  0
 30 31  2  0
 31 32  1  0
 32 33  1  0
 33 34  2  0
 34 35  1  0
 35 36  2  0
 36 37  1  0
 36 38  1  0
 38 39  2  0
 39 40  1  0
 31 41  1  0
 41 42  2  0
 41 43  1  0
 43 44  1  0
 43 45  1  0
 45 46  2  0
 24 20  1  0
 46 26  1  0
 45 29  1  0
 39 33  1  0
M  END

