
     RDKit          3D

 31 32  0  0  0  0  0  0  0  0999 V2000
    7.9707   -1.7197   -0.2462 N   0  0  0  0  0  0  0  0  0  0  0  0
    6.7400   -1.0104   -0.3277 C   0  0  0  0  0  0  0  0  0  0  0  0
    6.7376    0.2489   -0.0152 N   0  0  0  0  0  4  0  0  0  0  0  0
    5.5406   -1.6021   -0.7262 N   0  0  0  0  0  0  0  0  0  0  0  0
    4.2581   -0.9306   -0.8280 C   0  0  0  0  0  0  0  0  0  0  0  0
    3.2475   -1.9814   -1.3006 C   0  0  0  0  0  0  0  0  0  0  0  0
    3.1763   -3.0919   -0.3255 C   0  0  0  0  0  0  0  0  0  0  0  0
    2.7006   -2.7065    1.0160 C   0  0  0  0  0  0  0  0  0  0  0  0
    1.3885   -2.2503    1.0488 N   0  0  0  0  0  0  0  0  0  0  0  0
    0.7058   -1.1958    0.4561 C   0  0  0  0  0  0  0  0  0  0  0  0
    1.2314   -0.4034   -0.2824 O   0  0  0  0  0  0  0  0  0  0  0  0
   -0.8343   -1.1223    0.8361 C   0  0  1  0  0  0  0  0  0  0  0  0
   -0.6213   -0.3928    2.2871 C   0  0  0  0  0  0  0  0  0  0  0  0
    0.0621    0.9009    1.9999 C   0  0  0  0  0  0  0  0  0  0  0  0
   -0.6369    2.0548    1.7062 C   0  0  0  0  0  0  0  0  0  0  0  0
   -0.0212    3.2545    1.4525 C   0  0  0  0  0  0  0  0  0  0  0  0
    1.3465    3.3362    1.4864 C   0  0  0  0  0  0  0  0  0  0  0  0
    1.9212    4.5702    1.2234 O   0  0  0  0  0  0  0  0  0  0  0  0
    2.0841    2.2074    1.7759 C   0  0  0  0  0  0  0  0  0  0  0  0
    1.4391    1.0190    2.0258 C   0  0  0  0  0  0  0  0  0  0  0  0
   -1.1558    0.1694    0.0309 N   0  0  0  0  0  0  0  0  0  0  0  0
   -2.5626    0.4884    0.0110 C   0  0  0  0  0  0  0  0  0  0  0  0
   -3.2526   -0.3152    0.6303 O   0  0  0  0  0  0  0  0  0  0  0  0
   -3.0711    1.6790   -0.7003 C   0  0  0  0  0  0  0  0  0  0  0  0
   -4.5505    1.7288   -0.6800 C   0  0  0  0  0  0  0  0  0  0  0  0
   -5.1124    0.5725   -1.3778 C   0  0  0  0  0  0  0  0  0  0  0  0
   -5.4734   -0.5840   -0.7759 C   0  0  0  0  0  0  0  0  0  0  0  0
   -6.0027   -1.6747   -1.4224 C   0  0  0  0  0  0  0  0  0  0  0  0
   -6.1706   -1.5605   -2.7927 C   0  0  0  0  0  0  0  0  0  0  0  0
   -5.8061   -0.3796   -3.4352 C   0  0  0  0  0  0  0  0  0  0  0  0
   -5.2787    0.6914   -2.7505 C   0  0  0  0  0  0  0  0  0  0  0  0
  1  2  1  0
  2  3  2  0
  2  4  1  0
  4  5  1  0
  5  6  1  0
  6  7  1  0
  7  8  1  0
  8  9  1  0
  9 10  1  0
 10 11  2  0
 10 12  1  0
 12 13  1  6
 13 14  1  0
 14 15  2  0
 15 16  1  0
 16 17  2  0
 17 18  1  0
 17 19  1  0
 19 20  2  0
 12 21  1  0
 21 22  1  0
 22 23  2  0
 22 24  1  0
 24 25  1  0
 25 26  1  0
 26 27  2  0
 27 28  1  0
 28 29  2  0
 29 30  1  0
 30 31  2  0
 20 14  1  0
 31 26  1  0
M  CHG  1   3   1
M  END

