
     RDKit          3D

 55 58  0  0  0  0  0  0  0  0999 V2000
    4.4430    1.3679    1.7282 C   0  0  0  0  0  0  0  0  0  0  0  0
    5.0745   -0.1343    1.7018 C   0  0  2  0  0  0  0  0  0  0  0  0
    6.3167    0.2239    0.7242 C   0  0  0  0  0  0  0  0  0  0  0  0
    5.8610    0.7129   -0.5224 N   0  0  0  0  0  0  0  0  0  0  0  0
    5.5670    0.0921   -1.6425 N   0  0  0  0  0  0  0  0  0  0  0  0
    5.1759    1.0215   -2.5402 C   0  0  0  0  0  0  0  0  0  0  0  0
    5.2352    2.2346   -1.9473 N   0  0  0  0  0  0  0  0  0  0  0  0
    5.6561    2.0088   -0.7196 N   0  0  0  0  0  0  0  0  0  0  0  0
    4.1482   -0.6368    0.5688 N   0  0  0  0  0  0  0  0  0  0  0  0
    2.7844   -0.5614    0.9079 C   0  0  0  0  0  0  0  0  0  0  0  0
    2.3720   -0.0998    2.0906 N   0  0  0  0  0  0  0  0  0  0  0  0
    1.0571   -0.0525    2.3548 C   0  0  0  0  0  0  0  0  0  0  0  0
    0.1296   -0.4708    1.4292 C   0  0  0  0  0  0  0  0  0  0  0  0
   -1.2334   -0.4268    1.6909 C   0  0  0  0  0  0  0  0  0  0  0  0
   -2.0851   -0.8684    0.6995 C   0  0  0  0  0  0  0  0  0  0  0  0
   -3.4407   -0.8217    0.9667 O   0  0  0  0  0  0  0  0  0  0  0  0
   -4.3556   -0.0970    0.2303 C   0  0  0  0  0  0  0  0  0  0  0  0
   -4.0199    0.6583   -0.8499 C   0  0  0  0  0  0  0  0  0  0  0  0
   -4.9750    1.3779   -1.5698 C   0  0  0  0  0  0  0  0  0  0  0  0
   -6.2822    1.2937   -1.1414 C   0  0  0  0  0  0  0  0  0  0  0  0
   -7.2959    1.9519   -1.7659 F   0  0  0  0  0  0  0  0  0  0  0  0
   -6.6335    0.5297   -0.0459 C   0  0  0  0  0  0  0  0  0  0  0  0
   -5.6780   -0.1601    0.6345 C   0  0  0  0  0  0  0  0  0  0  0  0
   -6.0453   -0.9137    1.7200 F   0  0  0  0  0  0  0  0  0  0  0  0
   -1.6322   -1.3350   -0.5001 C   0  0  0  0  0  0  0  0  0  0  0  0
   -2.4303   -1.7309   -1.3850 O   0  0  0  0  0  0  0  0  0  0  0  0
   -0.3121   -1.3719   -0.7392 N   0  0  0  0  0  0  0  0  0  0  0  0
    0.1584   -1.8682   -2.0141 C   0  0  0  0  0  0  0  0  0  0  0  0
    0.5581   -0.9470    0.2088 C   0  0  0  0  0  0  0  0  0  0  0  0
    1.8819   -0.9768   -0.0135 N   0  0  0  0  0  0  0  0  0  0  0  0
    6.2447   -0.4136    0.2311 N   0  0  0  0  0  0  0  0  0  0  0  0
    5.3204   -0.2822    1.3047 C   0  0  0  0  0  0  0  0  0  0  0  0
    5.7361   -0.5811    2.4897 N   0  0  0  0  0  4  0  0  0  0  0  0
    4.0168    0.1674    1.0565 N   0  0  0  0  0  0  0  0  0  0  0  0
    3.0654    0.3210    2.1203 C   0  0  0  0  0  0  0  0  0  0  0  0
    1.7272    0.7829    1.5842 C   0  0  0  0  0  0  0  0  0  0  0  0
    1.2247   -0.2921    0.6163 C   0  0  0  0  0  0  0  0  0  0  0  0
   -0.2169    0.4784    0.1658 C   0  0  2  0  0  0  0  0  0  0  0  0
   -0.5940   -0.7294   -0.7977 N   0  0  0  0  0  0  0  0  0  0  0  0
   -1.9152   -1.0738   -0.5914 C   0  0  0  0  0  0  0  0  0  0  0  0
   -2.6690   -0.5204    0.2181 O   0  0  0  0  0  0  0  0  0  0  0  0
   -2.6085   -2.2498   -1.4054 C   0  0  1  0  0  0  0  0  0  0  0  0
   -1.3398   -2.6433   -2.2585 N   0  0  0  0  0  4  0  0  0  0  0  0
   -2.2684   -3.4045   -0.2246 C   0  0  0  0  0  0  0  0  0  0  0  0
   -2.9921   -2.8578    0.9964 C   0  0  0  0  0  0  0  0  0  0  0  0
   -4.4267   -2.7988    0.6276 C   0  0  0  0  0  0  0  0  0  0  0  0
   -4.9015   -3.2125   -0.5999 O   0  0  0  0  0  1  0  0  0  0  0  0
   -5.2443   -2.3512    1.4827 O   0  0  0  0  0  0  0  0  0  0  0  0
    0.5282    1.3518   -0.9675 C   0  0  0  0  0  0  0  0  0  0  0  0
    1.1808    0.7947   -1.8293 O   0  0  0  0  0  0  0  0  0  0  0  0
    0.3219    2.7319   -0.8114 N   0  0  0  0  0  0  0  0  0  0  0  0
   -0.4577    3.3967    0.1952 C   0  0  0  0  0  0  0  0  0  0  0  0
   -0.9302    4.6349   -0.5418 C   0  0  0  0  0  0  0  0  0  0  0  0
    0.2852    5.0374   -1.3506 C   0  0  0  0  0  0  0  0  0  0  0  0
    0.9129    3.7136   -1.7108 C   0  0  0  0  0  0  0  0  0  0  0  0
  2  1  1  6
  2  3  1  0
  3  4  1  0
  4  5  1  0
  5  6  2  0
  6  7  1  0
  7  8  2  0
  2  9  1  0
  9 10  1  0
 10 11  2  0
 11 12  1  0
 12 13  2  0
 13 14  1  0
 14 15  2  0
 15 16  1  0
 16 17  1  0
 17 18  2  0
 18 19  1  0
 19 20  2  0
 20 21  1  0
 20 22  1  0
 22 23  2  0
 23 24  1  0
 15 25  1  0
 25 26  2  0
 25 27  1  0
 27 28  1  0
 27 29  1  0
 29 30  2  0
 31 32  1  0
 32 33  2  0
 32 34  1  0
 34 35  1  0
 35 36  1  0
 36 37  1  0
 38 37  1  1
 38 39  1  0
 39 40  1  0
 40 41  2  0
 40 42  1  0
 42 43  1  6
 42 44  1  0
 44 45  1  0
 45 46  1  0
 46 47  1  0
 46 48  2  0
 38 49  1  0
 49 50  2  0
 49 51  1  0
 51 52  1  0
 52 53  1  0
 53 54  1  0
 54 55  1  0
  8  4  1  0
 30 10  1  0
 55 51  1  0
 29 13  1  0
 23 17  1  0
M  CHG  2  33   1  43   1
M  RAD  1  47   2
M  END

