
     RDKit          3D

 50 52  0  0  0  0  0  0  0  0999 V2000
    5.7990   -1.3735   -1.5466 C   0  0  0  0  0  0  0  0  0  0  0  0
    4.7768   -2.4412   -1.2448 C   0  0  0  0  0  0  0  0  0  0  0  0
    4.1170   -2.8335   -2.5451 C   0  0  0  0  0  0  0  0  0  0  0  0
    3.6964   -1.9322   -0.3188 C   0  0  0  0  0  0  0  0  0  0  0  0
    3.0244   -0.7800   -0.9921 C   0  0  0  0  0  0  0  0  0  0  0  0
    1.9540   -0.1726   -0.2038 C   0  0  0  0  0  0  0  0  0  0  0  0
    1.7335   -0.6873    0.9378 O   0  0  0  0  0  0  0  0  0  0  0  0
    1.1675    0.9503   -0.6623 N   0  0  0  0  0  0  0  0  0  0  0  0
    0.0787    1.3680    0.4198 C   0  0  1  0  0  0  0  0  0  0  0  0
   -0.4943    2.6297   -0.4991 C   0  0  0  0  0  0  0  0  0  0  0  0
   -1.5745    3.2224    0.2985 C   0  0  0  0  0  0  0  0  0  0  0  0
   -2.2712    4.3079   -0.1604 O   0  0  0  0  0  1  0  0  0  0  0  0
   -1.8677    2.7323    1.4201 O   0  0  0  0  0  0  0  0  0  0  0  0
   -1.0506    0.3570   -0.0567 C   0  0  0  0  0  0  0  0  0  0  0  0
   -1.0327    0.1015   -1.2488 O   0  0  0  0  0  0  0  0  0  0  0  0
   -1.9492   -0.1589    0.8565 N   0  0  0  0  0  0  0  0  0  0  0  0
   -2.9767   -1.0742    0.4453 C   0  0  0  0  0  0  0  0  0  0  0  0
   -3.8018   -1.4864    1.6227 C   0  0  0  0  0  0  0  0  0  0  0  0
   -4.8840   -2.4433    1.1875 C   0  0  0  0  0  0  0  0  0  0  0  0
   -4.4446   -0.2859    2.2903 C   0  0  0  0  0  0  0  0  0  0  0  0
   -4.2927   -1.8876    1.6627 C   0  0  0  0  0  0  0  0  0  0  0  0
   -4.7404   -0.4346    0.9937 C   0  0  2  0  0  0  0  0  0  0  0  0
   -5.9529   -1.1309    0.0911 C   0  0  0  0  0  0  0  0  0  0  0  0
   -6.4589    0.0667   -0.5778 N   0  0  0  0  0  0  0  0  0  0  0  0
   -7.4190    0.8220   -0.0811 N   0  0  0  0  0  0  0  0  0  0  0  0
   -7.6673    1.8467   -0.9180 C   0  0  0  0  0  0  0  0  0  0  0  0
   -6.8146    1.6835   -1.9502 N   0  0  0  0  0  0  0  0  0  0  0  0
   -6.0985    0.6018   -1.7174 N   0  0  0  0  0  0  0  0  0  0  0  0
   -3.6919   -0.5464   -0.1766 N   0  0  0  0  0  0  0  0  0  0  0  0
   -2.3791   -0.6248    0.2932 C   0  0  0  0  0  0  0  0  0  0  0  0
   -2.1031   -0.6028    1.5993 N   0  0  0  0  0  0  0  0  0  0  0  0
   -0.8299   -0.6798    2.0275 C   0  0  0  0  0  0  0  0  0  0  0  0
    0.1995   -0.7819    1.1193 C   0  0  0  0  0  0  0  0  0  0  0  0
    1.5269   -0.8646    1.4894 C   0  0  0  0  0  0  0  0  0  0  0  0
    2.5533   -0.9668    0.5724 C   0  0  0  0  0  0  0  0  0  0  0  0
    3.8736   -1.0472    0.9994 O   0  0  0  0  0  0  0  0  0  0  0  0
    4.7424   -0.0623    0.5823 C   0  0  0  0  0  0  0  0  0  0  0  0
    5.8462   -0.4490   -0.1609 C   0  0  0  0  0  0  0  0  0  0  0  0
    6.7653    0.4730   -0.6177 C   0  0  0  0  0  0  0  0  0  0  0  0
    6.5911    1.7991   -0.3356 C   0  0  0  0  0  0  0  0  0  0  0  0
    7.4887    2.7122   -0.7801 F   0  0  0  0  0  0  0  0  0  0  0  0
    5.4966    2.1995    0.4035 C   0  0  0  0  0  0  0  0  0  0  0  0
    4.5828    1.2707    0.8561 C   0  0  0  0  0  0  0  0  0  0  0  0
    3.4911    1.6261    1.5876 F   0  0  0  0  0  0  0  0  0  0  0  0
    2.1940   -0.9837   -0.7601 C   0  0  0  0  0  0  0  0  0  0  0  0
    3.0835   -1.0741   -1.6123 O   0  0  0  0  0  0  0  0  0  0  0  0
    0.9039   -0.9046   -1.1578 N   0  0  0  0  0  0  0  0  0  0  0  0
    0.5787   -0.9262   -2.5629 C   0  0  0  0  0  0  0  0  0  0  0  0
   -0.0995   -0.8038   -0.2354 C   0  0  0  0  0  0  0  0  0  0  0  0
   -1.3696   -0.7261   -0.6336 N   0  0  0  0  0  0  0  0  0  0  0  0
  1  2  1  0
  2  3  1  0
  2  4  1  0
  4  5  1  0
  5  6  1  0
  6  7  2  0
  6  8  1  0
  8  9  1  0
  9 10  1  6
 10 11  1  0
 11 12  1  0
 11 13  2  0
  9 14  1  0
 14 15  2  0
 14 16  1  0
 16 17  1  0
 17 18  1  0
 18 19  1  0
 18 20  1  0
 22 21  1  1
 22 23  1  0
 23 24  1  0
 24 25  1  0
 25 26  2  0
 26 27  1  0
 27 28  2  0
 22 29  1  0
 29 30  1  0
 30 31  2  0
 31 32  1  0
 32 33  2  0
 33 34  1  0
 34 35  2  0
 35 36  1  0
 36 37  1  0
 37 38  2  0
 38 39  1  0
 39 40  2  0
 40 41  1  0
 40 42  1  0
 42 43  2  0
 43 44  1  0
 35 45  1  0
 45 46  2  0
 45 47  1  0
 47 48  1  0
 47 49  1  0
 49 50  2  0
 28 24  1  0
 50 30  1  0
 49 33  1  0
 43 37  1  0
M  RAD  1  12   2
M  END

