
     RDKit          3D

 55 58  0  0  0  0  0  0  0  0999 V2000
    5.9757    0.2183   -3.1243 C   0  0  0  0  0  0  0  0  0  0  0  0
    5.2238    0.1555   -1.6043 C   0  0  2  0  0  0  0  0  0  0  0  0
    5.3488   -1.4964   -1.6107 C   0  0  0  0  0  0  0  0  0  0  0  0
    4.7577   -1.8680   -0.3607 N   0  0  0  0  0  0  0  0  0  0  0  0
    5.3718   -1.9651    0.7873 N   0  0  0  0  0  0  0  0  0  0  0  0
    4.5205   -2.3681    1.7459 C   0  0  0  0  0  0  0  0  0  0  0  0
    3.3324   -2.5203    1.1381 N   0  0  0  0  0  0  0  0  0  0  0  0
    3.5092   -2.2104   -0.1338 N   0  0  0  0  0  0  0  0  0  0  0  0
    3.7897    0.1621   -2.2615 N   0  0  0  0  0  0  0  0  0  0  0  0
    2.7284    0.5063   -1.3739 C   0  0  0  0  0  0  0  0  0  0  0  0
    2.9243    0.8274   -0.0687 N   0  0  0  0  0  0  0  0  0  0  0  0
    1.8549    1.1371    0.6848 C   0  0  0  0  0  0  0  0  0  0  0  0
    0.5694    1.1445    0.1967 C   0  0  0  0  0  0  0  0  0  0  0  0
   -0.5252    1.4643    0.9783 C   0  0  0  0  0  0  0  0  0  0  0  0
   -1.7926    1.4499    0.4140 C   0  0  0  0  0  0  0  0  0  0  0  0
   -2.9267    1.7612    1.1476 O   0  0  0  0  0  0  0  0  0  0  0  0
   -3.9768    0.8733    1.3307 C   0  0  0  0  0  0  0  0  0  0  0  0
   -5.2690    1.1326    0.9179 C   0  0  0  0  0  0  0  0  0  0  0  0
   -6.2826    0.2116    1.1249 C   0  0  0  0  0  0  0  0  0  0  0  0
   -6.0640   -1.0012    1.7463 C   0  0  0  0  0  0  0  0  0  0  0  0
   -7.0728   -1.8921    1.9401 F   0  0  0  0  0  0  0  0  0  0  0  0
   -4.7719   -1.2571    2.1573 C   0  0  0  0  0  0  0  0  0  0  0  0
   -3.7533   -0.3390    1.9529 C   0  0  0  0  0  0  0  0  0  0  0  0
   -2.4744   -0.5967    2.3619 F   0  0  0  0  0  0  0  0  0  0  0  0
   -1.9250    1.1152   -0.9173 C   0  0  0  0  0  0  0  0  0  0  0  0
   -3.0841    1.1088   -1.4074 O   0  0  0  0  0  0  0  0  0  0  0  0
   -0.8480    0.8057   -1.6669 N   0  0  0  0  0  0  0  0  0  0  0  0
   -1.0140    0.4531   -3.0803 C   0  0  0  0  0  0  0  0  0  0  0  0
    0.3961    0.8135   -1.1374 C   0  0  0  0  0  0  0  0  0  0  0  0
    1.4779    0.5060   -1.8774 N   0  0  0  0  0  0  0  0  0  0  0  0
    7.3509    0.8476   -0.9847 N   0  0  0  0  0  0  0  0  0  0  0  0
    6.3407    0.2351   -0.2343 C   0  0  0  0  0  0  0  0  0  0  0  0
    6.2925   -1.0557   -0.1637 N   0  0  0  0  0  4  0  0  0  0  0  0
    5.3401    0.9315    0.4667 N   0  0  0  0  0  0  0  0  0  0  0  0
    4.2832    0.3401    1.2468 C   0  0  0  0  0  0  0  0  0  0  0  0
    3.4014   -0.5523    0.3599 C   0  0  0  0  0  0  0  0  0  0  0  0
    2.7768    0.3023   -0.7507 C   0  0  0  0  0  0  0  0  0  0  0  0
    1.9637    1.3509   -0.0263 C   0  0  0  0  0  0  0  0  0  0  0  0
    0.9576    0.7234    0.7625 N   0  0  0  0  0  0  0  0  0  0  0  0
   -0.0621   -0.0745    0.2407 C   0  0  0  0  0  0  0  0  0  0  0  0
   -0.2029   -0.3141   -0.9203 O   0  0  0  0  0  0  0  0  0  0  0  0
   -1.0401   -0.6383    1.3814 C   0  0  2  0  0  0  0  0  0  0  0  0
   -0.6443   -2.2198    1.1243 C   0  0  0  0  0  0  0  0  0  0  0  0
   -0.9310   -2.7220   -0.1565 C   0  0  0  0  0  0  0  0  0  0  0  0
   -2.2992   -2.8685   -0.6613 C   0  0  0  0  0  0  0  0  0  0  0  0
   -2.6117   -3.0381   -2.0305 O   0  0  0  0  0  1  0  0  0  0  0  0
   -3.2463   -2.8392    0.1689 O   0  0  0  0  0  0  0  0  0  0  0  0
   -2.3356   -0.5603    0.5010 N   0  0  0  0  0  0  0  0  0  0  0  0
   -3.0393    0.6136    0.8486 C   0  0  0  0  0  0  0  0  0  0  0  0
   -2.6403    1.3410    1.6699 O   0  0  0  0  0  0  0  0  0  0  0  0
   -4.4122    0.8347    0.0130 C   0  0  2  0  0  0  0  0  0  0  0  0
   -3.7469    1.4157   -1.3807 C   0  0  0  0  0  0  0  0  0  0  0  0
   -3.1847    2.6978   -0.9617 C   0  0  0  0  0  0  0  0  0  0  0  0
   -3.5671    2.9912    0.4403 C   0  0  0  0  0  0  0  0  0  0  0  0
   -4.7432    2.2580    0.6194 N   0  0  0  0  0  0  0  0  0  0  0  0
  2  1  1  6
  2  3  1  0
  3  4  1  0
  4  5  1  0
  5  6  2  0
  6  7  1  0
  7  8  2  0
  2  9  1  0
  9 10  1  0
 10 11  2  0
 11 12  1  0
 12 13  2  0
 13 14  1  0
 14 15  2  0
 15 16  1  0
 16 17  1  0
 17 18  2  0
 18 19  1  0
 19 20  2  0
 20 21  1  0
 20 22  1  0
 22 23  2  0
 23 24  1  0
 15 25  1  0
 25 26  2  0
 25 27  1  0
 27 28  1  0
 27 29  1  0
 29 30  2  0
 31 32  1  0
 32 33  2  0
 32 34  1  0
 34 35  1  0
 35 36  1  0
 36 37  1  0
 37 38  1  0
 38 39  1  0
 39 40  1  0
 40 41  2  0
 40 42  1  0
 42 43  1  6
 43 44  1  0
 44 45  1  0
 45 46  1  0
 45 47  2  0
 42 48  1  0
 48 49  1  0
 49 50  2  0
 51 49  1  1
 51 52  1  0
 52 53  1  0
 53 54  1  0
 54 55  1  0
  8  4  1  0
 30 10  1  0
 55 51  1  0
 29 13  1  0
 23 17  1  0
M  CHG  1  33   1
M  RAD  1  46   2
M  END

