
     RDKit          3D

 20 19  0  0  0  0  0  0  0  0999 V2000
   -2.2055    0.4430    3.3981 C   0  0  0  0  0  0  0  0  0  0  0  0
   -0.7982    0.2543    3.2348 C   0  0  0  0  0  0  0  0  0  0  0  0
   -0.2500   -1.0681    2.7319 C   0  0  2  0  0  0  0  0  0  0  0  0
    1.3528   -0.6657    2.9036 C   0  0  0  0  0  0  0  0  0  0  0  0
   -0.2058   -1.0564    1.1163 C   0  0  2  0  0  0  0  0  0  0  0  0
    0.6240    0.2696    0.9370 N   0  0  0  0  0  0  0  0  0  0  0  0
    1.6507    0.1374   -0.0355 C   0  0  0  0  0  0  0  0  0  0  0  0
    1.7577   -1.0024   -0.6106 O   0  0  0  0  0  0  0  0  0  0  0  0
    2.5622    1.2558   -0.3985 C   0  0  0  0  0  0  0  0  0  0  0  0
    3.2631    0.9217   -1.7124 C   0  0  0  0  0  0  0  0  0  0  0  0
    4.0799   -0.2705   -1.5055 C   0  0  0  0  0  0  0  0  0  0  0  0
    3.8937   -1.4934   -2.2276 N   0  0  0  0  0  0  0  0  0  0  0  0
    5.0184   -0.2278   -0.6443 O   0  0  0  0  0  0  0  0  0  0  0  0
   -1.5393   -0.5555    0.6515 C   0  0  0  0  0  0  0  0  0  0  0  0
   -2.5787   -0.5213    1.3290 O   0  0  0  0  0  0  0  0  0  0  0  0
   -1.6641   -0.0773   -0.6531 N   0  0  0  0  0  0  0  0  0  0  0  0
   -2.5335    0.4270   -1.5256 C   0  0  0  0  0  0  0  0  0  0  0  0
   -3.6520   -0.1897   -2.1233 C   0  0  0  0  0  0  0  0  0  0  0  0
   -4.7496   -0.7121   -1.3348 C   0  0  0  0  0  0  0  0  0  0  0  0
   -4.0258    0.3068   -3.5312 C   0  0  0  0  0  0  0  0  0  0  0  0
  1  2  1  0
  2  3  1  0
  3  4  1  1
  3  5  1  0
  5  6  1  1
  6  7  1  0
  7  8  2  0
  7  9  1  0
  9 10  1  0
 10 11  1  0
 11 12  1  0
 11 13  2  0
  5 14  1  0
 14 15  2  0
 14 16  1  0
 16 17  1  0
 17 18  1  0
 18 19  1  0
 18 20  1  0
M  END

