
     RDKit          3D

 20 20  0  0  0  0  0  0  0  0999 V2000
   -5.9906   -0.4040   -2.2480 C   0  0  0  0  0  0  0  0  0  0  0  0
   -5.2703   -0.1429   -0.9489 C   0  0  0  0  0  0  0  0  0  0  0  0
   -6.1502   -0.2178    0.2527 C   0  0  0  0  0  0  0  0  0  0  0  0
   -4.4202    1.1034   -1.0024 C   0  0  0  0  0  0  0  0  0  0  0  0
   -3.3960    0.8873   -2.1205 C   0  0  0  0  0  0  0  0  0  0  0  0
   -2.5734   -0.2927   -1.8167 N   0  0  0  0  0  0  0  0  0  0  0  0
   -1.7878   -0.3616   -0.6475 C   0  0  0  0  0  0  0  0  0  0  0  0
   -1.7905    0.5991    0.1464 O   0  0  0  0  0  0  0  0  0  0  0  0
   -0.9649   -1.5474   -0.3480 C   0  0  0  0  0  0  0  0  0  0  0  0
   -0.2358   -1.4174    0.8932 N   0  0  0  0  0  0  0  0  0  0  0  0
    0.7110   -0.3375    1.0367 C   0  0  0  0  0  0  0  0  0  0  0  0
    0.8275    0.4222    0.0417 O   0  0  0  0  0  0  0  0  0  0  0  0
    1.4725   -0.1790    2.2993 C   0  0  0  0  0  0  0  0  0  0  0  0
    2.4403    0.9414    2.3100 C   0  0  0  0  0  0  0  0  0  0  0  0
    3.4715    0.7870    1.2720 C   0  0  0  0  0  0  0  0  0  0  0  0
    3.4067    1.2811   -0.0002 C   0  0  0  0  0  0  0  0  0  0  0  0
    4.4241    1.0833   -0.8991 C   0  0  0  0  0  0  0  0  0  0  0  0
    5.5602    0.3777   -0.5640 C   0  0  0  0  0  0  0  0  0  0  0  0
    5.6456   -0.1339    0.7273 C   0  0  0  0  0  0  0  0  0  0  0  0
    4.6204    0.0715    1.6160 C   0  0  0  0  0  0  0  0  0  0  0  0
  1  2  1  0
  2  3  1  0
  2  4  1  0
  4  5  1  0
  5  6  1  0
  6  7  1  0
  7  8  2  0
  7  9  1  0
  9 10  1  0
 10 11  1  0
 11 12  2  0
 11 13  1  0
 13 14  1  0
 14 15  1  0
 15 16  2  0
 16 17  1  0
 17 18  2  0
 18 19  1  0
 19 20  2  0
 20 15  1  0
M  END

