
     RDKit          3D

 52 54  0  0  0  0  0  0  0  0999 V2000
   -6.7086    3.0426   -1.2926 C   0  0  0  0  0  0  0  0  0  0  0  0
   -5.4992    2.4860   -0.6051 C   0  0  0  0  0  0  0  0  0  0  0  0
   -4.4009    2.0995   -1.5290 C   0  0  0  0  0  0  0  0  0  0  0  0
   -5.8521    1.4343    0.4191 C   0  0  0  0  0  0  0  0  0  0  0  0
   -4.6214    0.8855    1.1051 C   0  0  0  0  0  0  0  0  0  0  0  0
   -3.7188    0.2633    0.1517 N   0  0  0  0  0  0  0  0  0  0  0  0
   -2.4957   -0.2856    0.5708 C   0  0  0  0  0  0  0  0  0  0  0  0
   -2.1113   -0.2827    1.7082 O   0  0  0  0  0  0  0  0  0  0  0  0
   -1.6330   -0.9289   -0.6269 C   0  0  2  0  0  0  0  0  0  0  0  0
   -1.6333   -2.4663    0.0713 C   0  0  0  0  0  0  0  0  0  0  0  0
   -2.8410   -2.9812   -0.3893 O   0  0  0  0  0  0  0  0  0  0  0  0
   -0.2275   -0.5640    0.0152 N   0  0  0  0  0  0  0  0  0  0  0  0
    0.8757   -1.0874   -0.7006 C   0  0  0  0  0  0  0  0  0  0  0  0
    0.6977   -1.7833   -1.7414 O   0  0  0  0  0  0  0  0  0  0  0  0
    2.2775   -0.8412   -0.2651 C   0  0  0  0  0  0  0  0  0  0  0  0
    3.2711   -1.4759   -1.1834 C   0  0  0  0  0  0  0  0  0  0  0  0
    4.6607   -1.0956   -0.6056 C   0  0  0  0  0  0  0  0  0  0  0  0
    4.6724    0.4313   -0.6376 C   0  0  0  0  0  0  0  0  0  0  0  0
    5.8788    0.9985   -0.1301 N   0  0  0  0  0  0  0  0  0  0  0  0
    6.3142    0.7738    1.2015 C   0  0  0  0  0  0  0  0  0  0  0  0
    7.5184    1.3483    1.7040 N   0  0  0  0  0  0  0  0  0  0  0  0
    5.5763    0.0291    1.9532 N   0  0  0  0  0  4  0  0  0  0  0  0
    3.9704    1.6390    1.2355 C   0  0  0  0  0  0  0  0  0  0  0  0
    4.5210    0.1754    1.7537 C   0  0  2  0  0  0  0  0  0  0  0  0
    5.9966    0.3067    1.0558 C   0  0  0  0  0  0  0  0  0  0  0  0
    5.8476    0.4571   -0.3399 N   0  0  0  0  0  0  0  0  0  0  0  0
    5.7315    1.6372   -0.9292 N   0  0  0  0  0  0  0  0  0  0  0  0
    5.6030    1.5017   -2.2568 C   0  0  0  0  0  0  0  0  0  0  0  0
    5.6455    0.1555   -2.4687 N   0  0  0  0  0  0  0  0  0  0  0  0
    5.7911   -0.4322   -1.3119 N   0  0  0  0  0  0  0  0  0  0  0  0
    3.8813   -0.6111    0.5768 N   0  0  0  0  0  0  0  0  0  0  0  0
    2.4755   -0.4714    0.5265 C   0  0  0  0  0  0  0  0  0  0  0  0
    1.8520    0.2799    1.4401 N   0  0  0  0  0  0  0  0  0  0  0  0
    0.5137    0.3940    1.3666 C   0  0  0  0  0  0  0  0  0  0  0  0
   -0.1902   -0.2417    0.3834 C   0  0  0  0  0  0  0  0  0  0  0  0
   -1.5730   -0.1217    0.3105 C   0  0  0  0  0  0  0  0  0  0  0  0
   -2.2400   -0.7870   -0.7066 C   0  0  0  0  0  0  0  0  0  0  0  0
   -3.6146   -0.6999   -0.8229 O   0  0  0  0  0  0  0  0  0  0  0  0
   -4.3636    0.0526    0.0708 C   0  0  0  0  0  0  0  0  0  0  0  0
   -3.7279    0.7185    1.0833 C   0  0  0  0  0  0  0  0  0  0  0  0
   -4.4112    1.4820    2.0032 C   0  0  0  0  0  0  0  0  0  0  0  0
   -5.7755    1.5770    1.8994 C   0  0  0  0  0  0  0  0  0  0  0  0
   -6.4208    2.3368    2.8207 F   0  0  0  0  0  0  0  0  0  0  0  0
   -6.4222    0.9140    0.8890 C   0  0  0  0  0  0  0  0  0  0  0  0
   -5.7170    0.1493   -0.0289 C   0  0  0  0  0  0  0  0  0  0  0  0
   -6.3630   -0.4997   -1.0201 F   0  0  0  0  0  0  0  0  0  0  0  0
   -1.5076   -1.5373   -1.6003 C   0  0  0  0  0  0  0  0  0  0  0  0
   -2.1379   -2.1427   -2.5298 O   0  0  0  0  0  0  0  0  0  0  0  0
   -0.1719   -1.6546   -1.5316 N   0  0  0  0  0  0  0  0  0  0  0  0
    0.5321   -2.4635   -2.5097 C   0  0  0  0  0  0  0  0  0  0  0  0
    0.4793   -1.0020   -0.5345 C   0  0  0  0  0  0  0  0  0  0  0  0
    1.7956   -1.1117   -0.4588 N   0  0  0  0  0  0  0  0  0  0  0  0
  1  2  1  0
  2  3  1  0
  2  4  1  0
  4  5  1  0
  5  6  1  0
  6  7  1  0
  7  8  2  0
  7  9  1  0
  9 10  1  1
 10 11  1  0
  9 12  1  0
 12 13  1  0
 13 14  2  0
 13 15  1  0
 15 16  1  0
 16 17  1  0
 17 18  1  0
 18 19  1  0
 19 20  1  0
 20 21  1  0
 20 22  2  0
 24 23  1  6
 24 25  1  0
 25 26  1  0
 26 27  1  0
 27 28  2  0
 28 29  1  0
 29 30  2  0
 24 31  1  0
 31 32  1  0
 32 33  2  0
 33 34  1  0
 34 35  2  0
 35 36  1  0
 36 37  2  0
 37 38  1  0
 38 39  1  0
 39 40  2  0
 40 41  1  0
 41 42  2  0
 42 43  1  0
 42 44  1  0
 44 45  2  0
 45 46  1  0
 37 47  1  0
 47 48  2  0
 47 49  1  0
 49 50  1  0
 49 51  1  0
 51 52  2  0
 30 26  1  0
 52 32  1  0
 51 35  1  0
 45 39  1  0
M  CHG  1  22   1
M  END

