
     RDKit          3D

 54 56  0  0  0  0  0  0  0  0999 V2000
   -6.7198   -0.2637    2.4725 C   0  0  0  0  0  0  0  0  0  0  0  0
   -5.2888   -0.4828    1.8783 C   0  0  0  0  0  0  0  0  0  0  0  0
   -4.8632    0.9854    1.6150 C   0  0  0  0  0  0  0  0  0  0  0  0
   -5.3960   -1.2462    0.6285 C   0  0  0  0  0  0  0  0  0  0  0  0
   -4.2653   -1.6293   -0.1000 C   0  0  0  0  0  0  0  0  0  0  0  0
   -3.2269   -0.9671   -0.6674 N   0  0  0  0  0  0  0  0  0  0  0  0
   -2.2172   -0.2461   -0.2268 C   0  0  0  0  0  0  0  0  0  0  0  0
   -2.0303   -0.0452    1.0129 O   0  0  0  0  0  0  0  0  0  0  0  0
   -1.0962    0.4750   -1.0873 C   0  0  2  0  0  0  0  0  0  0  0  0
   -0.6829   -0.7046   -2.0943 C   0  0  0  0  0  0  0  0  0  0  0  0
   -1.6864   -1.1864   -2.9385 C   0  0  0  0  0  0  0  0  0  0  0  0
   -2.9153   -0.6732   -3.2241 O   0  0  0  0  0  1  0  0  0  0  0  0
   -1.4060   -2.2866   -3.5427 O   0  0  0  0  0  0  0  0  0  0  0  0
    0.0634    0.2383   -0.0877 N   0  0  0  0  0  0  0  0  0  0  0  0
    1.3611    0.0236   -0.5580 C   0  0  0  0  0  0  0  0  0  0  0  0
    1.5004    0.0388   -1.8209 O   0  0  0  0  0  0  0  0  0  0  0  0
    2.5539   -0.2145    0.2633 C   0  0  0  0  0  0  0  0  0  0  0  0
    3.7753   -0.4189   -0.6506 C   0  0  0  0  0  0  0  0  0  0  0  0
    3.9873    0.8121   -1.4801 C   0  0  0  0  0  0  0  0  0  0  0  0
    4.3102    2.0441   -0.7421 C   0  0  0  0  0  0  0  0  0  0  0  0
    5.4949    2.1403   -0.0203 N   0  0  0  0  0  0  0  0  0  0  0  0
    6.0385    1.4172    1.0381 C   0  0  0  0  0  0  0  0  0  0  0  0
    7.3311    1.7522    1.6082 N   0  0  0  0  0  0  0  0  0  0  0  0
    5.3780    0.4375    1.5138 N   0  0  0  0  0  4  0  0  0  0  0  0
    4.0779    1.6435    0.2925 C   0  0  0  0  0  0  0  0  0  0  0  0
    4.1356    1.4387    1.9365 C   0  0  2  0  0  0  0  0  0  0  0  0
    5.7675    1.2043    1.9653 C   0  0  0  0  0  0  0  0  0  0  0  0
    6.0777    0.0834    1.1677 N   0  0  0  0  0  0  0  0  0  0  0  0
    6.3519    0.1459   -0.1346 N   0  0  0  0  0  0  0  0  0  0  0  0
    6.5969   -1.0992   -0.5602 C   0  0  0  0  0  0  0  0  0  0  0  0
    6.4703   -1.9046    0.4815 N   0  0  0  0  0  0  0  0  0  0  0  0
    6.1566   -1.1847    1.5228 N   0  0  0  0  0  0  0  0  0  0  0  0
    3.7835   -0.0984    1.8699 N   0  0  0  0  0  0  0  0  0  0  0  0
    2.5033   -0.3674    1.2550 C   0  0  0  0  0  0  0  0  0  0  0  0
    2.1125   -1.6449    1.1510 N   0  0  0  0  0  0  0  0  0  0  0  0
    0.9457   -2.0110    0.5990 C   0  0  0  0  0  0  0  0  0  0  0  0
    0.1112   -0.9876    0.1140 C   0  0  0  0  0  0  0  0  0  0  0  0
   -1.0720   -1.2935   -0.4497 C   0  0  0  0  0  0  0  0  0  0  0  0
   -1.9135   -0.2270   -0.9408 C   0  0  0  0  0  0  0  0  0  0  0  0
   -3.0721   -0.6222   -1.4894 O   0  0  0  0  0  0  0  0  0  0  0  0
   -4.3689   -0.5154   -1.2343 C   0  0  0  0  0  0  0  0  0  0  0  0
   -4.9824   -1.7770   -0.8985 C   0  0  0  0  0  0  0  0  0  0  0  0
   -6.2962   -1.8627   -0.6110 C   0  0  0  0  0  0  0  0  0  0  0  0
   -7.1185   -0.7594   -0.6220 C   0  0  0  0  0  0  0  0  0  0  0  0
   -8.4404   -0.8799   -0.3263 F   0  0  0  0  0  0  0  0  0  0  0  0
   -6.5474    0.4400   -0.9397 C   0  0  0  0  0  0  0  0  0  0  0  0
   -5.1854    0.5731   -1.2459 C   0  0  0  0  0  0  0  0  0  0  0  0
   -4.7247    1.7960   -1.5914 F   0  0  0  0  0  0  0  0  0  0  0  0
   -1.4508    1.0407   -0.8025 C   0  0  0  0  0  0  0  0  0  0  0  0
   -2.1087    2.0469   -1.2052 O   0  0  0  0  0  0  0  0  0  0  0  0
   -0.2420    1.3082   -0.2225 N   0  0  0  0  0  0  0  0  0  0  0  0
    0.1808    2.6872   -0.1104 C   0  0  0  0  0  0  0  0  0  0  0  0
    0.5331    0.3174    0.2314 C   0  0  0  0  0  0  0  0  0  0  0  0
    1.7187    0.6106    0.7979 N   0  0  0  0  0  0  0  0  0  0  0  0
  1  2  1  0
  2  3  1  0
  2  4  1  0
  4  5  1  0
  5  6  1  0
  6  7  1  0
  7  8  2  0
  7  9  1  0
  9 10  1  6
 10 11  1  0
 11 12  1  0
 11 13  2  0
  9 14  1  0
 14 15  1  0
 15 16  2  0
 15 17  1  0
 17 18  1  0
 18 19  1  0
 19 20  1  0
 20 21  1  0
 21 22  1  0
 22 23  1  0
 22 24  2  0
 26 25  1  6
 26 27  1  0
 27 28  1  0
 28 29  1  0
 29 30  2  0
 30 31  1  0
 31 32  2  0
 26 33  1  0
 33 34  1  0
 34 35  2  0
 35 36  1  0
 36 37  2  0
 37 38  1  0
 38 39  2  0
 39 40  1  0
 40 41  1  0
 41 42  2  0
 42 43  1  0
 43 44  2  0
 44 45  1  0
 44 46  1  0
 46 47  2  0
 47 48  1  0
 39 49  1  0
 49 50  2  0
 49 51  1  0
 51 52  1  0
 51 53  1  0
 53 54  2  0
 32 28  1  0
 54 34  1  0
 53 37  1  0
 47 41  1  0
M  CHG  1  24   1
M  RAD  1  12   2
M  END

