
     RDKit          3D

 52 54  0  0  0  0  0  0  0  0999 V2000
    3.9937   -0.0823   -2.0779 C   0  0  0  0  0  0  0  0  0  0  0  0
    4.8749    0.9909   -1.1834 C   0  0  2  0  0  0  0  0  0  0  0  0
    4.3886    0.4933    0.3073 C   0  0  0  0  0  0  0  0  0  0  0  0
    4.7684   -0.8537    0.4799 N   0  0  0  0  0  0  0  0  0  0  0  0
    5.8867   -1.3204    0.9875 N   0  0  0  0  0  0  0  0  0  0  0  0
    5.8632   -2.6588    0.9644 C   0  0  0  0  0  0  0  0  0  0  0  0
    4.6963   -3.0218    0.4270 N   0  0  0  0  0  0  0  0  0  0  0  0
    4.0488   -1.9005    0.1410 N   0  0  0  0  0  0  0  0  0  0  0  0
    3.8621    2.1440   -1.3006 N   0  0  0  0  0  0  0  0  0  0  0  0
    2.5462    1.9841   -0.8419 C   0  0  0  0  0  0  0  0  0  0  0  0
    1.7566    3.0977   -1.0123 N   0  0  0  0  0  0  0  0  0  0  0  0
    0.4724    3.1288   -0.6337 C   0  0  0  0  0  0  0  0  0  0  0  0
   -0.0633    1.9954   -0.0536 C   0  0  0  0  0  0  0  0  0  0  0  0
   -1.3881    2.0546    0.3269 C   0  0  0  0  0  0  0  0  0  0  0  0
   -1.9213    0.9194    0.9069 C   0  0  0  0  0  0  0  0  0  0  0  0
   -3.2636    0.9079    1.3188 O   0  0  0  0  0  0  0  0  0  0  0  0
   -4.1949    0.0358    0.8284 C   0  0  0  0  0  0  0  0  0  0  0  0
   -4.8643   -0.8440    1.6440 C   0  0  0  0  0  0  0  0  0  0  0  0
   -5.7975   -1.7118    1.1245 C   0  0  0  0  0  0  0  0  0  0  0  0
   -6.0549   -1.6868   -0.2398 C   0  0  0  0  0  0  0  0  0  0  0  0
   -6.9702   -2.5348   -0.7634 F   0  0  0  0  0  0  0  0  0  0  0  0
   -5.3965   -0.8173   -1.0611 C   0  0  0  0  0  0  0  0  0  0  0  0
   -4.4647    0.0455   -0.5255 C   0  0  0  0  0  0  0  0  0  0  0  0
   -3.7998    0.9190   -1.3336 F   0  0  0  0  0  0  0  0  0  0  0  0
   -1.1284   -0.1930    1.0759 C   0  0  0  0  0  0  0  0  0  0  0  0
   -1.6765   -1.1985    1.6127 O   0  0  0  0  0  0  0  0  0  0  0  0
    0.1817   -0.2236    0.6893 N   0  0  0  0  0  0  0  0  0  0  0  0
    0.9312   -1.4381    0.9090 C   0  0  0  0  0  0  0  0  0  0  0  0
    0.7096    0.8730    0.1251 C   0  0  0  0  0  0  0  0  0  0  0  0
    2.0036    0.8963   -0.2764 N   0  0  0  0  0  0  0  0  0  0  0  0
    5.3116    2.3730    0.6414 O   0  0  0  0  0  1  0  0  0  0  0  0
    4.7954    3.3095   -0.2596 C   0  0  0  0  0  0  0  0  0  0  0  0
    5.3802    4.4130   -0.3385 O   0  0  0  0  0  0  0  0  0  0  0  0
    3.6217    3.0721   -1.1056 C   0  0  0  0  0  0  0  0  0  0  0  0
    3.0216    1.7011   -0.8966 C   0  0  0  0  0  0  0  0  0  0  0  0
    2.6095    1.6056    0.5513 C   0  0  0  0  0  0  0  0  0  0  0  0
    2.0115    0.3040    0.8528 N   0  0  0  0  0  0  0  0  0  0  0  0
    0.8397   -0.0160    0.1038 C   0  0  0  0  0  0  0  0  0  0  0  0
    0.3427    0.7017   -0.7268 O   0  0  0  0  0  0  0  0  0  0  0  0
    0.2104   -1.4606    0.4666 C   0  0  2  0  0  0  0  0  0  0  0  0
    1.1956   -2.2830   -0.6286 C   0  0  0  0  0  0  0  0  0  0  0  0
    0.7576   -3.6846   -0.4440 C   0  0  0  0  0  0  0  0  0  0  0  0
   -0.0689   -4.2828   -1.3746 O   0  0  0  0  0  1  0  0  0  0  0  0
    1.1275   -4.3450    0.5524 O   0  0  0  0  0  0  0  0  0  0  0  0
   -0.9893   -1.3668   -0.5552 N   0  0  0  0  0  0  0  0  0  0  0  0
   -2.1146   -0.7475    0.0236 C   0  0  0  0  0  0  0  0  0  0  0  0
   -2.0676   -0.3524    1.2183 O   0  0  0  0  0  0  0  0  0  0  0  0
   -3.3934   -0.5365   -0.7459 C   0  0  0  0  0  0  0  0  0  0  0  0
   -4.3752    0.1383    0.1462 C   0  0  0  0  0  0  0  0  0  0  0  0
   -5.6725    0.3887   -0.5329 C   0  0  0  0  0  0  0  0  0  0  0  0
   -6.6742    1.0151    0.2034 O   0  0  0  0  0  1  0  0  0  0  0  0
   -5.8692    0.0531   -1.7237 O   0  0  0  0  0  0  0  0  0  0  0  0
  2  1  1  6
  2  3  1  0
  3  4  1  0
  4  5  1  0
  5  6  2  0
  6  7  1  0
  7  8  2  0
  2  9  1  0
  9 10  1  0
 10 11  2  0
 11 12  1  0
 12 13  2  0
 13 14  1  0
 14 15  2  0
 15 16  1  0
 16 17  1  0
 17 18  2  0
 18 19  1  0
 19 20  2  0
 20 21  1  0
 20 22  1  0
 22 23  2  0
 23 24  1  0
 15 25  1  0
 25 26  2  0
 25 27  1  0
 27 28  1  0
 27 29  1  0
 29 30  2  0
 31 32  1  0
 32 33  2  0
 32 34  1  0
 34 35  1  0
 35 36  1  0
 36 37  1  0
 37 38  1  0
 38 39  2  0
 38 40  1  0
 40 41  1  6
 41 42  1  0
 42 43  1  0
 42 44  2  0
 40 45  1  0
 45 46  1  0
 46 47  2  0
 46 48  1  0
 48 49  1  0
 49 50  1  0
 50 51  1  0
 50 52  2  0
  8  4  1  0
 30 10  1  0
 29 13  1  0
 23 17  1  0
M  RAD  3  31   2  43   2  51   2
M  END

