
     RDKit          3D

 22 21  0  0  0  0  0  0  0  0999 V2000
   -1.7357   -1.6612    1.7225 C   0  0  0  0  0  0  0  0  0  0  0  0
   -0.5413   -0.9777    2.2267 C   0  0  0  0  0  0  0  0  0  0  0  0
    0.1819   -0.0117    1.2292 C   0  0  2  0  0  0  0  0  0  0  0  0
   -1.0434    0.9891    1.0247 C   0  0  0  0  0  0  0  0  0  0  0  0
    0.1120   -0.9864   -0.0969 C   0  0  2  0  0  0  0  0  0  0  0  0
    0.9719   -0.0836   -1.0743 N   0  0  0  0  0  0  0  0  0  0  0  0
    1.9143    0.7863   -0.5820 C   0  0  0  0  0  0  0  0  0  0  0  0
    2.0437    0.8251    0.6606 O   0  0  0  0  0  0  0  0  0  0  0  0
    2.7487    1.6467   -1.4523 C   0  0  0  0  0  0  0  0  0  0  0  0
    3.6554    2.5033   -0.5818 C   0  0  0  0  0  0  0  0  0  0  0  0
    4.5021    1.5819    0.2448 C   0  0  0  0  0  0  0  0  0  0  0  0
    5.3186    0.7034   -0.6667 C   0  0  0  0  0  0  0  0  0  0  0  0
    6.1686   -0.2260    0.1630 C   0  0  0  0  0  0  0  0  0  0  0  0
    5.2622   -1.0240    0.9697 N   0  0  0  0  0  4  0  0  0  0  0  0
   -1.2151   -0.5766   -0.8292 C   0  0  0  0  0  0  0  0  0  0  0  0
   -1.1353   -0.5487   -2.1140 O   0  0  0  0  0  0  0  0  0  0  0  0
   -2.4045   -0.2557   -0.2403 N   0  0  0  0  0  0  0  0  0  0  0  0
   -3.5647    0.1085   -1.0292 C   0  0  0  0  0  0  0  0  0  0  0  0
   -4.6976    0.4105   -0.0685 C   0  0  0  0  0  0  0  0  0  0  0  0
   -4.9999   -0.7994    0.7731 C   0  0  0  0  0  0  0  0  0  0  0  0
   -5.4082   -1.9720   -0.0791 C   0  0  0  0  0  0  0  0  0  0  0  0
   -6.1338   -0.4321    1.7301 C   0  0  0  0  0  0  0  0  0  0  0  0
  1  2  1  0
  2  3  1  0
  3  4  1  6
  3  5  1  0
  5  6  1  6
  6  7  1  0
  7  8  2  0
  7  9  1  0
  9 10  1  0
 10 11  1  0
 11 12  1  0
 12 13  1  0
 13 14  1  0
  5 15  1  0
 15 16  2  0
 15 17  1  0
 17 18  1  0
 18 19  1  0
 19 20  1  0
 20 21  1  0
 20 22  1  0
M  CHG  1  14   1
M  END

