
     RDKit          3D

 51 53  0  0  0  0  0  0  0  0999 V2000
   -5.3939   -1.4126    0.8816 C   0  0  0  0  0  0  0  0  0  0  0  0
   -4.6260   -2.0432   -0.2189 C   0  0  0  0  0  0  0  0  0  0  0  0
   -5.4071   -3.0759   -0.9909 C   0  0  0  0  0  0  0  0  0  0  0  0
   -3.8901   -1.1209   -1.1053 C   0  0  0  0  0  0  0  0  0  0  0  0
   -2.8686   -0.2866   -0.3809 C   0  0  0  0  0  0  0  0  0  0  0  0
   -2.7473   -0.4818    0.8537 O   0  0  0  0  0  0  0  0  0  0  0  0
   -2.0840    0.6607   -1.0104 N   0  0  0  0  0  0  0  0  0  0  0  0
   -1.0528    1.5145   -0.2862 C   0  0  1  0  0  0  0  0  0  0  0  0
   -1.0441    0.7046    1.1364 C   0  0  0  0  0  0  0  0  0  0  0  0
   -0.0834    1.4028    2.0108 C   0  0  0  0  0  0  0  0  0  0  0  0
    0.2780    0.9561    3.3142 N   0  0  0  0  0  0  0  0  0  0  0  0
    0.4732    2.4752    1.6041 O   0  0  0  0  0  0  0  0  0  0  0  0
    0.2647    0.8440   -0.8764 C   0  0  0  0  0  0  0  0  0  0  0  0
    0.1615   -0.1236   -1.6451 O   0  0  0  0  0  0  0  0  0  0  0  0
    1.5191    1.3816   -0.5033 N   0  0  0  0  0  0  0  0  0  0  0  0
    2.7116    0.7844   -1.0260 C   0  0  0  0  0  0  0  0  0  0  0  0
    2.8505   -0.6694   -0.6043 C   0  0  0  0  0  0  0  0  0  0  0  0
    4.1469   -1.2082   -1.2344 C   0  0  0  0  0  0  0  0  0  0  0  0
    5.2532   -0.3616   -0.7163 C   0  0  0  0  0  0  0  0  0  0  0  0
    6.1184    0.1961   -1.6215 O   0  0  0  0  0  1  0  0  0  0  0  0
    5.4202   -0.1364    0.5111 O   0  0  0  0  0  0  0  0  0  0  0  0
   -3.8767    0.9441    1.4095 C   0  0  0  0  0  0  0  0  0  0  0  0
   -4.0448    2.0050    0.1470 C   0  0  2  0  0  0  0  0  0  0  0  0
   -5.6846    1.8616    0.0865 C   0  0  0  0  0  0  0  0  0  0  0  0
   -5.9949    0.4836   -0.1676 N   0  0  0  0  0  0  0  0  0  0  0  0
   -6.2070   -0.5378    0.6080 N   0  0  0  0  0  0  0  0  0  0  0  0
   -6.4631   -1.6325   -0.1012 C   0  0  0  0  0  0  0  0  0  0  0  0
   -6.4020   -1.2502   -1.3752 N   0  0  0  0  0  0  0  0  0  0  0  0
   -6.1177    0.0339   -1.3996 N   0  0  0  0  0  0  0  0  0  0  0  0
   -3.7666    0.9115   -0.9582 N   0  0  0  0  0  0  0  0  0  0  0  0
   -2.4826    0.3113   -0.8253 C   0  0  0  0  0  0  0  0  0  0  0  0
   -2.1488   -0.6214   -1.7048 N   0  0  0  0  0  0  0  0  0  0  0  0
   -0.9678   -1.2764   -1.7037 C   0  0  0  0  0  0  0  0  0  0  0  0
   -0.0329   -0.9725   -0.7349 C   0  0  0  0  0  0  0  0  0  0  0  0
    1.2003   -1.5992   -0.6664 C   0  0  0  0  0  0  0  0  0  0  0  0
    2.0569   -1.2146    0.3462 C   0  0  0  0  0  0  0  0  0  0  0  0
    3.2955   -1.8382    0.4219 O   0  0  0  0  0  0  0  0  0  0  0  0
    4.4227   -1.0278    0.3129 C   0  0  0  0  0  0  0  0  0  0  0  0
    5.2985   -1.0104    1.3681 C   0  0  0  0  0  0  0  0  0  0  0  0
    6.4106   -0.2215    1.2802 C   0  0  0  0  0  0  0  0  0  0  0  0
    6.6581    0.5433    0.1639 C   0  0  0  0  0  0  0  0  0  0  0  0
    7.7724    1.3326    0.0782 F   0  0  0  0  0  0  0  0  0  0  0  0
    5.7969    0.5343   -0.8887 C   0  0  0  0  0  0  0  0  0  0  0  0
    4.6632   -0.2574   -0.8226 C   0  0  0  0  0  0  0  0  0  0  0  0
    3.7662   -0.3117   -1.8352 F   0  0  0  0  0  0  0  0  0  0  0  0
    1.6901   -0.2440    1.2487 C   0  0  0  0  0  0  0  0  0  0  0  0
    2.5220    0.0638    2.1549 O   0  0  0  0  0  0  0  0  0  0  0  0
    0.4813    0.3371    1.1425 N   0  0  0  0  0  0  0  0  0  0  0  0
    0.1435    1.3525    2.1168 C   0  0  0  0  0  0  0  0  0  0  0  0
   -0.3956    0.0013    0.1741 C   0  0  0  0  0  0  0  0  0  0  0  0
   -1.5930    0.6236    0.1239 N   0  0  0  0  0  0  0  0  0  0  0  0
  1  2  1  0
  2  3  1  0
  2  4  1  0
  4  5  1  0
  5  6  2  0
  5  7  1  0
  7  8  1  0
  8  9  1  1
  9 10  1  0
 10 11  1  0
 10 12  2  0
  8 13  1  0
 13 14  2  0
 13 15  1  0
 15 16  1  0
 16 17  1  0
 17 18  1  0
 18 19  1  0
 19 20  1  0
 19 21  2  0
 23 22  1  1
 23 24  1  0
 24 25  1  0
 25 26  1  0
 26 27  2  0
 27 28  1  0
 28 29  2  0
 23 30  1  0
 30 31  1  0
 31 32  2  0
 32 33  1  0
 33 34  2  0
 34 35  1  0
 35 36  2  0
 36 37  1  0
 37 38  1  0
 38 39  2  0
 39 40  1  0
 40 41  2  0
 41 42  1  0
 41 43  1  0
 43 44  2  0
 44 45  1  0
 36 46  1  0
 46 47  2  0
 46 48  1  0
 48 49  1  0
 48 50  1  0
 50 51  2  0
 29 25  1  0
 51 31  1  0
 50 34  1  0
 44 38  1  0
M  RAD  1  20   2
M  END

