
     RDKit          3D

 21 21  0  0  0  0  0  0  0  0999 V2000
   -0.1866    0.0549    2.9790 C   0  0  0  0  0  0  0  0  0  0  0  0
   -0.6124    0.9812    1.6770 C   0  0  2  0  0  0  0  0  0  0  0  0
   -2.1054    0.5030    1.7153 N   0  0  0  0  0  0  0  0  0  0  0  0
   -3.0039    1.2498    0.8832 C   0  0  0  0  0  0  0  0  0  0  0  0
   -2.7294    2.1851    0.1881 O   0  0  0  0  0  0  0  0  0  0  0  0
   -4.4638    0.6353    1.0114 C   0  0  2  0  0  0  0  0  0  0  0  0
   -4.1909   -0.5317   -0.1294 C   0  0  0  0  0  0  0  0  0  0  0  0
   -5.5242   -0.5289   -0.8303 C   0  0  0  0  0  0  0  0  0  0  0  0
   -6.2780    0.7011   -0.3028 C   0  0  0  0  0  0  0  0  0  0  0  0
   -5.1506    1.5784   -0.0349 N   0  0  0  0  0  0  0  0  0  0  0  0
   -0.1320   -0.0314    0.5807 C   0  0  0  0  0  0  0  0  0  0  0  0
   -0.9161   -0.2490   -0.3182 O   0  0  0  0  0  0  0  0  0  0  0  0
    1.0900   -0.6646    0.5934 N   0  0  0  0  0  0  0  0  0  0  0  0
    1.4894   -1.5915   -0.4266 C   0  0  0  0  0  0  0  0  0  0  0  0
    1.5274   -0.8824   -1.7521 C   0  0  0  0  0  0  0  0  0  0  0  0
    2.5635    0.2558   -1.6448 C   0  0  0  0  0  0  0  0  0  0  0  0
    3.8419   -0.4066   -1.2793 C   0  0  0  0  0  0  0  0  0  0  0  0
    4.9887    0.4637   -1.1396 N   0  0  0  0  0  0  0  0  0  0  0  0
    6.1815   -0.1912   -0.7216 C   0  0  0  0  0  0  0  0  0  0  0  0
    7.4121    0.5559   -0.5490 N   0  0  0  0  0  0  0  0  0  0  0  0
    6.1990   -1.4414   -0.4994 N   0  0  0  0  0  4  0  0  0  0  0  0
  2  1  1  1
  2  3  1  0
  3  4  1  0
  4  5  2  0
  6  4  1  6
  6  7  1  0
  7  8  1  0
  8  9  1  0
  9 10  1  0
  2 11  1  0
 11 12  2  0
 11 13  1  0
 13 14  1  0
 14 15  1  0
 15 16  1  0
 16 17  1  0
 17 18  1  0
 18 19  1  0
 19 20  1  0
 19 21  2  0
 10  6  1  0
M  CHG  1  21   1
M  END

