
     RDKit          3D

 22 21  0  0  0  0  0  0  0  0999 V2000
   -1.4755    3.5119    0.5342 C   0  0  0  0  0  0  0  0  0  0  0  0
   -0.7313    2.1918    0.3874 C   0  0  0  0  0  0  0  0  0  0  0  0
   -1.1818    1.2242    1.4608 C   0  0  0  0  0  0  0  0  0  0  0  0
   -0.9370    1.7486   -1.0014 C   0  0  0  0  0  0  0  0  0  0  0  0
   -0.1460    0.3334   -1.2492 C   0  0  2  0  0  0  0  0  0  0  0  0
   -0.9149   -0.4736   -0.1550 N   0  0  0  0  0  0  0  0  0  0  0  0
   -2.2990   -0.6247   -0.3980 C   0  0  0  0  0  0  0  0  0  0  0  0
   -2.7972   -0.1287   -1.4226 O   0  0  0  0  0  0  0  0  0  0  0  0
   -3.1952   -1.3612    0.5380 C   0  0  0  0  0  0  0  0  0  0  0  0
   -4.6260   -1.3082    0.0811 C   0  0  0  0  0  0  0  0  0  0  0  0
   -5.4219   -2.0667    1.0893 C   0  0  0  0  0  0  0  0  0  0  0  0
   -6.7990   -2.1650    0.9630 O   0  0  0  0  0  1  0  0  0  0  0  0
   -4.8910   -2.6412    2.0826 O   0  0  0  0  0  0  0  0  0  0  0  0
    1.1504    0.6812   -0.4116 C   0  0  0  0  0  0  0  0  0  0  0  0
    1.2006    0.1958    0.7096 O   0  0  0  0  0  0  0  0  0  0  0  0
    2.1057    1.5004   -1.0205 N   0  0  0  0  0  0  0  0  0  0  0  0
    3.3012    1.8167   -0.2281 C   0  0  0  0  0  0  0  0  0  0  0  0
    4.0470    0.5705    0.1385 C   0  0  0  0  0  0  0  0  0  0  0  0
    4.5044   -0.1775   -1.1079 C   0  0  0  0  0  0  0  0  0  0  0  0
    5.2425   -1.4162   -0.6591 C   0  0  0  0  0  0  0  0  0  0  0  0
    6.4471   -1.1148    0.1910 C   0  0  0  0  0  0  0  0  0  0  0  0
    7.4169   -0.2967   -0.5223 N   0  0  0  0  0  4  0  0  0  0  0  0
  1  2  1  0
  2  3  1  0
  2  4  1  0
  5  4  1  1
  5  6  1  0
  6  7  1  0
  7  8  2  0
  7  9  1  0
  9 10  1  0
 10 11  1  0
 11 12  1  0
 11 13  2  0
  5 14  1  0
 14 15  2  0
 14 16  1  0
 16 17  1  0
 17 18  1  0
 18 19  1  0
 19 20  1  0
 20 21  1  0
 21 22  1  0
M  CHG  1  22   1
M  RAD  1  12   2
M  END

