
     RDKit          3D

 20 19  0  0  0  0  0  0  0  0999 V2000
   -5.8618    1.3296    0.3251 C   0  0  0  0  0  0  0  0  0  0  0  0
   -4.4419    1.7488   -0.0790 C   0  0  0  0  0  0  0  0  0  0  0  0
   -3.9843    0.6944   -1.0796 C   0  0  0  0  0  0  0  0  0  0  0  0
   -3.6320    1.6466    1.2015 C   0  0  0  0  0  0  0  0  0  0  0  0
   -2.1713    2.0356    0.9670 C   0  0  0  0  0  0  0  0  0  0  0  0
   -1.7119    1.0827   -0.0573 N   0  0  0  0  0  0  0  0  0  0  0  0
   -0.4338    1.0438   -0.5739 C   0  0  0  0  0  0  0  0  0  0  0  0
    0.3719    1.8653   -0.1383 O   0  0  0  0  0  0  0  0  0  0  0  0
    0.1083    0.0901   -1.6351 C   0  0  2  0  0  0  0  0  0  0  0  0
   -0.1587   -1.3816   -1.1594 C   0  0  0  0  0  0  0  0  0  0  0  0
    0.4581   -1.7219    0.1195 C   0  0  0  0  0  0  0  0  0  0  0  0
    0.1490   -3.1123    0.4933 C   0  0  0  0  0  0  0  0  0  0  0  0
   -0.8909   -3.4238    1.3283 O   0  0  0  0  0  1  0  0  0  0  0  0
    0.8813   -4.0176    0.0138 O   0  0  0  0  0  0  0  0  0  0  0  0
    1.5626    0.2128   -1.6894 N   0  0  0  0  0  0  0  0  0  0  0  0
    2.5194    0.2768   -0.7211 C   0  0  0  0  0  0  0  0  0  0  0  0
    2.1146    0.2200    0.4787 O   0  0  0  0  0  0  0  0  0  0  0  0
    3.9996    0.4084   -0.9967 C   0  0  0  0  0  0  0  0  0  0  0  0
    4.6681    0.4241    0.3621 C   0  0  0  0  0  0  0  0  0  0  0  0
    6.4539    0.5780    0.2036 S   0  0  0  0  0  0  0  0  0  0  0  0
  1  2  1  0
  2  3  1  0
  2  4  1  0
  4  5  1  0
  5  6  1  0
  6  7  1  0
  7  8  2  0
  7  9  1  0
  9 10  1  1
 10 11  1  0
 11 12  1  0
 12 13  1  0
 12 14  2  0
  9 15  1  0
 15 16  1  0
 16 17  2  0
 16 18  1  0
 18 19  1  0
 19 20  1  0
M  RAD  1  13   2
M  END

