
     RDKit          3D

 56 60  0  0  0  0  0  0  0  0999 V2000
    5.5896   -2.2805    0.5770 C   0  0  0  0  0  0  0  0  0  0  0  0
    4.6359   -1.3387   -0.4296 C   0  0  2  0  0  0  0  0  0  0  0  0
    5.1894    0.0670    0.2612 C   0  0  0  0  0  0  0  0  0  0  0  0
    6.6215    0.0024    0.0073 N   0  0  0  0  0  0  0  0  0  0  0  0
    7.5670   -0.5318    0.7666 N   0  0  0  0  0  0  0  0  0  0  0  0
    8.7665   -0.3842    0.1734 C   0  0  0  0  0  0  0  0  0  0  0  0
    8.5339    0.2544   -0.9699 N   0  0  0  0  0  0  0  0  0  0  0  0
    7.2254    0.4839   -1.0592 N   0  0  0  0  0  0  0  0  0  0  0  0
    3.4011   -1.4336    0.5535 N   0  0  0  0  0  0  0  0  0  0  0  0
    2.2482   -0.7399    0.1105 C   0  0  0  0  0  0  0  0  0  0  0  0
    2.1593   -0.0524   -1.0270 N   0  0  0  0  0  0  0  0  0  0  0  0
    1.0132    0.5731   -1.3558 C   0  0  0  0  0  0  0  0  0  0  0  0
   -0.1025    0.5275   -0.5373 C   0  0  0  0  0  0  0  0  0  0  0  0
   -1.2832    1.1667   -0.8671 C   0  0  0  0  0  0  0  0  0  0  0  0
   -2.3402    1.0697    0.0021 C   0  0  0  0  0  0  0  0  0  0  0  0
   -3.5687    1.6701   -0.2286 O   0  0  0  0  0  0  0  0  0  0  0  0
   -4.7353    0.9453   -0.3257 C   0  0  0  0  0  0  0  0  0  0  0  0
   -4.7040   -0.4157   -0.1938 C   0  0  0  0  0  0  0  0  0  0  0  0
   -5.8567   -1.2006   -0.2832 C   0  0  0  0  0  0  0  0  0  0  0  0
   -7.0606   -0.5854   -0.5111 C   0  0  0  0  0  0  0  0  0  0  0  0
   -8.2255   -1.2565   -0.6130 F   0  0  0  0  0  0  0  0  0  0  0  0
   -7.0970    0.7783   -0.6440 C   0  0  0  0  0  0  0  0  0  0  0  0
   -5.9572    1.5421   -0.5544 C   0  0  0  0  0  0  0  0  0  0  0  0
   -6.0609    2.8819   -0.6945 F   0  0  0  0  0  0  0  0  0  0  0  0
   -2.1629    0.3441    1.1470 C   0  0  0  0  0  0  0  0  0  0  0  0
   -3.1191    0.2347    1.9711 O   0  0  0  0  0  0  0  0  0  0  0  0
   -1.0217   -0.2834    1.4827 N   0  0  0  0  0  0  0  0  0  0  0  0
   -0.8632   -1.0439    2.7009 C   0  0  0  0  0  0  0  0  0  0  0  0
    0.0112   -0.1900    0.6358 C   0  0  0  0  0  0  0  0  0  0  0  0
    1.1965   -0.8048    0.9202 N   0  0  0  0  0  0  0  0  0  0  0  0
   -5.5800   -0.7778   -2.0916 N   0  0  0  0  0  4  0  0  0  0  0  0
   -4.8815   -0.5085   -0.8402 C   0  0  0  0  0  0  0  0  0  0  0  0
   -5.4988   -1.3602    0.2428 C   0  0  0  0  0  0  0  0  0  0  0  0
   -4.8585   -1.1674    1.5823 C   0  0  0  0  0  0  0  0  0  0  0  0
   -3.3737   -1.5219    1.5371 C   0  0  0  0  0  0  0  0  0  0  0  0
   -2.8049   -0.4438    0.4002 C   0  0  2  0  0  0  0  0  0  0  0  0
   -1.3468   -0.9745    0.5170 N   0  0  0  0  0  0  0  0  0  0  0  0
   -0.4382   -0.5614   -0.4833 C   0  0  0  0  0  0  0  0  0  0  0  0
   -0.8303    0.2000   -1.4078 O   0  0  0  0  0  0  0  0  0  0  0  0
    0.9758   -1.0118   -0.4632 C   0  0  0  0  0  0  0  0  0  0  0  0
    1.6896   -0.4110   -1.6523 C   0  0  0  0  0  0  0  0  0  0  0  0
    3.0998   -0.8499   -1.6726 C   0  0  0  0  0  0  0  0  0  0  0  0
    3.6715   -1.8197   -2.4865 C   0  0  0  0  0  0  0  0  0  0  0  0
    4.9750   -1.9160   -2.1911 N   0  0  0  0  0  0  0  0  0  0  0  0
    5.3008   -1.0443   -1.2049 C   0  0  0  0  0  0  0  0  0  0  0  0
    6.4726   -0.7405   -0.5439 C   0  0  0  0  0  0  0  0  0  0  0  0
    6.4357    0.2308    0.4332 C   0  0  0  0  0  0  0  0  0  0  0  0
    5.2655    0.9004    0.7621 C   0  0  0  0  0  0  0  0  0  0  0  0
    4.1114    0.5863    0.0953 C   0  0  0  0  0  0  0  0  0  0  0  0
    4.1110   -0.3835   -0.8913 C   0  0  0  0  0  0  0  0  0  0  0  0
   -2.6261    0.7632    1.4046 C   0  0  0  0  0  0  0  0  0  0  0  0
   -1.5274    0.9374    1.9514 O   0  0  0  0  0  0  0  0  0  0  0  0
   -3.7203    1.6125    1.6532 N   0  0  0  0  0  0  0  0  0  0  0  0
   -3.4847    2.7090    2.5913 C   0  0  0  0  0  0  0  0  0  0  0  0
   -2.3686    3.5404    1.9927 C   0  0  0  0  0  0  0  0  0  0  0  0
   -2.7693    4.0123    0.7653 O   0  0  0  0  0  0  0  0  0  0  0  0
  2  1  1  1
  2  3  1  0
  3  4  1  0
  4  5  1  0
  5  6  2  0
  6  7  1  0
  7  8  2  0
  2  9  1  0
  9 10  1  0
 10 11  2  0
 11 12  1  0
 12 13  2  0
 13 14  1  0
 14 15  2  0
 15 16  1  0
 16 17  1  0
 17 18  2  0
 18 19  1  0
 19 20  2  0
 20 21  1  0
 20 22  1  0
 22 23  2  0
 23 24  1  0
 15 25  1  0
 25 26  2  0
 25 27  1  0
 27 28  1  0
 27 29  1  0
 29 30  2  0
 31 32  1  0
 32 33  1  0
 33 34  1  0
 34 35  1  0
 36 35  1  1
 36 37  1  0
 37 38  1  0
 38 39  2  0
 38 40  1  0
 40 41  1  0
 41 42  1  0
 42 43  2  0
 43 44  1  0
 44 45  1  0
 45 46  2  0
 46 47  1  0
 47 48  2  0
 48 49  1  0
 49 50  2  0
 36 51  1  0
 51 52  2  0
 51 53  1  0
 53 54  1  0
 54 55  1  0
 55 56  1  0
  8  4  1  0
 30 10  1  0
 50 42  1  0
 29 13  1  0
 50 45  1  0
 23 17  1  0
M  CHG  1  31   1
M  END

