
     RDKit          3D

 49 51  0  0  0  0  0  0  0  0999 V2000
   -4.8140   -1.5866   -3.3243 C   0  0  0  0  0  0  0  0  0  0  0  0
   -3.3680   -1.5065   -2.2282 S   0  0  0  0  0  0  0  0  0  0  0  0
   -3.8918   -1.6368   -0.4743 C   0  0  0  0  0  0  0  0  0  0  0  0
   -4.7048   -0.3747   -0.1683 C   0  0  0  0  0  0  0  0  0  0  0  0
   -3.8186    0.8399   -0.3869 C   0  0  0  0  0  0  0  0  0  0  0  0
   -2.6255    0.7721    0.5271 C   0  0  0  0  0  0  0  0  0  0  0  0
   -2.5450   -0.2614    1.2654 O   0  0  0  0  0  0  0  0  0  0  0  0
   -1.6366    1.7275    0.6210 N   0  0  0  0  0  0  0  0  0  0  0  0
   -0.4322    1.6087    1.5730 C   0  0  1  0  0  0  0  0  0  0  0  0
   -1.0613    0.4465    2.5426 C   0  0  0  0  0  0  0  0  0  0  0  0
    0.4609    0.6307    0.7054 C   0  0  0  0  0  0  0  0  0  0  0  0
    0.0685    0.2294   -0.3815 O   0  0  0  0  0  0  0  0  0  0  0  0
    1.7022    0.2566    1.2412 N   0  0  0  0  0  0  0  0  0  0  0  0
    2.6493   -0.6118    0.6159 C   0  0  0  0  0  0  0  0  0  0  0  0
    3.1160   -0.0808   -0.7131 C   0  0  0  0  0  0  0  0  0  0  0  0
    4.1177   -1.0676   -1.2853 C   0  0  0  0  0  0  0  0  0  0  0  0
    5.2333   -1.1501   -0.3017 C   0  0  0  0  0  0  0  0  0  0  0  0
    6.4474   -0.5048   -0.5956 O   0  0  0  0  0  1  0  0  0  0  0  0
    5.1024   -1.7772    0.7674 O   0  0  0  0  0  0  0  0  0  0  0  0
    4.4868   -0.3839   -0.7893 C   0  0  0  0  0  0  0  0  0  0  0  0
    4.5081   -0.9545    0.7719 C   0  0  2  0  0  0  0  0  0  0  0  0
    5.4237   -2.2847    0.3451 C   0  0  0  0  0  0  0  0  0  0  0  0
    6.6402   -1.7064   -0.1953 N   0  0  0  0  0  0  0  0  0  0  0  0
    6.8237   -1.3986   -1.4521 N   0  0  0  0  0  0  0  0  0  0  0  0
    8.0455   -0.8792   -1.6675 C   0  0  0  0  0  0  0  0  0  0  0  0
    8.6393   -0.8751   -0.4489 N   0  0  0  0  0  0  0  0  0  0  0  0
    7.7615   -1.3836    0.4270 N   0  0  0  0  0  0  0  0  0  0  0  0
    3.1439   -1.7399    0.5915 N   0  0  0  0  0  0  0  0  0  0  0  0
    2.0401   -0.8773    0.2467 C   0  0  0  0  0  0  0  0  0  0  0  0
    2.1800    0.4494    0.0997 N   0  0  0  0  0  0  0  0  0  0  0  0
    1.1743    1.2804   -0.2205 C   0  0  0  0  0  0  0  0  0  0  0  0
   -0.0930    0.7614   -0.4160 C   0  0  0  0  0  0  0  0  0  0  0  0
   -1.1708    1.5701   -0.7483 C   0  0  0  0  0  0  0  0  0  0  0  0
   -2.3923    0.9587   -0.9220 C   0  0  0  0  0  0  0  0  0  0  0  0
   -3.5460    1.6601   -1.2559 O   0  0  0  0  0  0  0  0  0  0  0  0
   -4.6084    1.5898   -0.3670 C   0  0  0  0  0  0  0  0  0  0  0  0
   -5.7905    1.0654   -0.8502 C   0  0  0  0  0  0  0  0  0  0  0  0
   -6.8455    0.9948    0.0300 C   0  0  0  0  0  0  0  0  0  0  0  0
   -6.7266    1.4274    1.3317 C   0  0  0  0  0  0  0  0  0  0  0  0
   -7.8236    1.3148    2.1176 F   0  0  0  0  0  0  0  0  0  0  0  0
   -5.5480    1.9483    1.8068 C   0  0  0  0  0  0  0  0  0  0  0  0
   -4.4676    2.0293    0.9343 C   0  0  0  0  0  0  0  0  0  0  0  0
   -3.2858    2.5462    1.3928 F   0  0  0  0  0  0  0  0  0  0  0  0
   -2.5065   -0.4069   -0.7645 C   0  0  0  0  0  0  0  0  0  0  0  0
   -3.6416   -0.9579   -0.9282 O   0  0  0  0  0  0  0  0  0  0  0  0
   -1.4506   -1.1487   -0.4457 N   0  0  0  0  0  0  0  0  0  0  0  0
   -1.5666   -2.5870   -0.2789 C   0  0  0  0  0  0  0  0  0  0  0  0
   -0.2250   -0.6021   -0.2625 C   0  0  0  0  0  0  0  0  0  0  0  0
    0.8215   -1.4104    0.0632 N   0  0  0  0  0  0  0  0  0  0  0  0
  1  2  1  0
  2  3  1  0
  3  4  1  0
  4  5  1  0
  5  6  1  0
  6  7  2  0
  6  8  1  0
  8  9  1  0
  9 10  1  1
  9 11  1  0
 11 12  2  0
 11 13  1  0
 13 14  1  0
 14 15  1  0
 15 16  1  0
 16 17  1  0
 17 18  1  0
 17 19  2  0
 21 20  1  6
 21 22  1  0
 22 23  1  0
 23 24  1  0
 24 25  2  0
 25 26  1  0
 26 27  2  0
 21 28  1  0
 28 29  1  0
 29 30  2  0
 30 31  1  0
 31 32  2  0
 32 33  1  0
 33 34  2  0
 34 35  1  0
 35 36  1  0
 36 37  2  0
 37 38  1  0
 38 39  2  0
 39 40  1  0
 39 41  1  0
 41 42  2  0
 42 43  1  0
 34 44  1  0
 44 45  2  0
 44 46  1  0
 46 47  1  0
 46 48  1  0
 48 49  2  0
 27 23  1  0
 49 29  1  0
 48 32  1  0
 42 36  1  0
M  RAD  1  18   2
M  END

