
     RDKit          3D

 29 29  0  0  0  0  0  0  0  0999 V2000
    4.6678   -3.0946    0.2859 N   0  0  0  0  0  0  0  0  0  0  0  0
    3.9895   -3.1821   -0.9809 C   0  0  0  0  0  0  0  0  0  0  0  0
    4.2513   -4.0558   -1.8644 N   0  0  0  0  0  4  0  0  0  0  0  0
    2.9636   -2.2177   -1.2513 N   0  0  0  0  0  0  0  0  0  0  0  0
    2.2442   -2.2427   -2.5151 C   0  0  0  0  0  0  0  0  0  0  0  0
    1.2187   -1.1271   -2.5650 C   0  0  0  0  0  0  0  0  0  0  0  0
    0.1881   -1.2952   -1.4201 C   0  0  0  0  0  0  0  0  0  0  0  0
    1.2128   -1.2793   -0.1715 C   0  0  2  0  0  0  0  0  0  0  0  0
    0.2394   -1.4342    0.9461 N   0  0  0  0  0  0  0  0  0  0  0  0
   -0.8923   -0.6756    1.1240 C   0  0  0  0  0  0  0  0  0  0  0  0
   -1.1053    0.2309    0.2503 O   0  0  0  0  0  0  0  0  0  0  0  0
   -1.8779   -0.7792    2.1885 C   0  0  0  0  0  0  0  0  0  0  0  0
   -3.0078    0.1242    2.2307 C   0  0  0  0  0  0  0  0  0  0  0  0
   -3.8711    0.0174    1.0458 C   0  0  0  0  0  0  0  0  0  0  0  0
   -4.8465   -0.9229    1.0030 C   0  0  0  0  0  0  0  0  0  0  0  0
   -5.6763   -0.9880   -0.0974 C   0  0  0  0  0  0  0  0  0  0  0  0
   -5.4757   -0.0789   -1.1238 C   0  0  0  0  0  0  0  0  0  0  0  0
   -6.2970   -0.1173   -2.2565 O   0  0  0  0  0  0  0  0  0  0  0  0
   -4.5009    0.8683   -1.0914 C   0  0  0  0  0  0  0  0  0  0  0  0
   -3.6622    0.9348    0.0193 C   0  0  0  0  0  0  0  0  0  0  0  0
    1.4962    0.2708   -0.0871 C   0  0  0  0  0  0  0  0  0  0  0  0
    1.2750    0.7594    1.0447 O   0  0  0  0  0  0  0  0  0  0  0  0
    1.9305    1.0151   -1.1075 N   0  0  0  0  0  0  0  0  0  0  0  0
    2.2325    2.3761   -1.1431 C   0  0  0  0  0  0  0  0  0  0  0  0
    3.3134    2.8188   -0.3064 C   0  0  0  0  0  0  0  0  0  0  0  0
    3.3885    2.7764    1.1187 C   0  0  0  0  0  0  0  0  0  0  0  0
    2.4733    3.5381    1.9584 C   0  0  0  0  0  0  0  0  0  0  0  0
    1.4847    4.3847    1.5451 O   0  0  0  0  0  1  0  0  0  0  0  0
    2.6435    3.3757    3.2208 O   0  0  0  0  0  0  0  0  0  0  0  0
  1  2  1  0
  2  3  2  0
  2  4  1  0
  4  5  1  0
  5  6  1  0
  6  7  1  0
  8  7  1  6
  8  9  1  0
  9 10  1  0
 10 11  2  0
 10 12  1  0
 12 13  1  0
 13 14  1  0
 14 15  2  0
 15 16  1  0
 16 17  2  0
 17 18  1  0
 17 19  1  0
 19 20  2  0
  8 21  1  0
 21 22  2  0
 21 23  1  0
 23 24  1  0
 24 25  1  0
 25 26  1  0
 26 27  1  0
 27 28  1  0
 27 29  2  0
 20 14  1  0
M  CHG  1   3   1
M  RAD  1  28   2
M  END

