
     RDKit          3D

 22 21  0  0  0  0  0  0  0  0999 V2000
    0.4497    3.1765   -5.2247 C   0  0  0  0  0  0  0  0  0  0  0  0
   -0.6063    2.6536   -3.8258 S   0  0  0  0  0  0  0  0  0  0  0  0
   -0.4040    0.8565   -3.5968 C   0  0  0  0  0  0  0  0  0  0  0  0
   -1.2975    0.4694   -2.4263 C   0  0  0  0  0  0  0  0  0  0  0  0
   -0.6408    1.4022   -1.2151 C   0  0  2  0  0  0  0  0  0  0  0  0
    0.7858    0.7307   -1.3318 N   0  0  0  0  0  0  0  0  0  0  0  0
    1.6377    0.9337   -0.2221 C   0  0  0  0  0  0  0  0  0  0  0  0
    1.1951    1.6134    0.7323 O   0  0  0  0  0  0  0  0  0  0  0  0
    2.9943    0.3611   -0.2005 C   0  0  0  0  0  0  0  0  0  0  0  0
    3.6441    0.7349    1.1049 C   0  0  0  0  0  0  0  0  0  0  0  0
    5.0429    0.1834    1.1998 C   0  0  0  0  0  0  0  0  0  0  0  0
    5.0518   -1.3164    1.1034 C   0  0  0  0  0  0  0  0  0  0  0  0
    4.4564   -1.7416   -0.2453 C   0  0  0  0  0  0  0  0  0  0  0  0
    4.5013   -3.2012   -0.2775 N   0  0  0  0  0  4  0  0  0  0  0  0
   -1.1736    0.4807   -0.0066 C   0  0  0  0  0  0  0  0  0  0  0  0
   -0.4927   -0.3884    0.4855 O   0  0  0  0  0  0  0  0  0  0  0  0
   -2.5135    0.7888    0.4210 N   0  0  0  0  0  0  0  0  0  0  0  0
   -3.0347   -0.0274    1.5276 C   0  0  0  0  0  0  0  0  0  0  0  0
   -4.4221    0.3582    1.9125 C   0  0  0  0  0  0  0  0  0  0  0  0
   -4.8752   -0.4850    3.0213 C   0  0  0  0  0  0  0  0  0  0  0  0
   -6.1463   -0.2688    3.5899 N   0  0  0  0  0  0  0  0  0  0  0  0
   -4.1525   -1.3957    3.4743 O   0  0  0  0  0  0  0  0  0  0  0  0
  1  2  1  0
  2  3  1  0
  3  4  1  0
  5  4  1  6
  5  6  1  0
  6  7  1  0
  7  8  2  0
  7  9  1  0
  9 10  1  0
 10 11  1  0
 11 12  1  0
 12 13  1  0
 13 14  1  0
  5 15  1  0
 15 16  2  0
 15 17  1  0
 17 18  1  0
 18 19  1  0
 19 20  1  0
 20 21  1  0
 20 22  2  0
M  CHG  1  14   1
M  END

