
     RDKit          3D

 44 46  0  0  0  0  0  0  0  0999 V2000
   -3.6005    1.4244    0.3538 C   0  0  0  0  0  0  0  0  0  0  0  0
   -2.9865    1.0039   -0.9876 C   0  0  0  0  0  0  0  0  0  0  0  0
   -1.8222    0.1854   -0.7462 N   0  0  0  0  0  0  0  0  0  0  0  0
   -1.8509   -1.0192   -0.0608 C   0  0  0  0  0  0  0  0  0  0  0  0
   -2.8609   -1.5006    0.4747 O   0  0  0  0  0  0  0  0  0  0  0  0
   -0.4968   -1.8815    0.0965 C   0  0  2  0  0  0  0  0  0  0  0  0
   -1.0843   -2.8021    1.3655 C   0  0  0  0  0  0  0  0  0  0  0  0
    0.0334   -0.7502    1.1625 N   0  0  0  0  0  0  0  0  0  0  0  0
    1.1073   -0.0551    0.5081 C   0  0  0  0  0  0  0  0  0  0  0  0
    1.4230   -0.3814   -0.6504 O   0  0  0  0  0  0  0  0  0  0  0  0
    1.7642    1.0289    1.2411 C   0  0  0  0  0  0  0  0  0  0  0  0
    2.9456    1.5441    0.1693 C   0  0  1  0  0  0  0  0  0  0  0  0
    3.4403    2.6859    1.3042 C   0  0  0  0  0  0  0  0  0  0  0  0
    3.9883    0.5174    0.7442 O   0  0  0  0  0  0  0  0  0  0  0  0
   -5.2186   -0.6116   -4.0695 C   0  0  0  0  0  0  0  0  0  0  0  0
   -4.8033   -0.7924   -2.4414 C   0  0  2  0  0  0  0  0  0  0  0  0
   -5.6085    0.6005   -2.0731 C   0  0  0  0  0  0  0  0  0  0  0  0
   -5.4663    0.7816   -0.6706 N   0  0  0  0  0  0  0  0  0  0  0  0
   -4.5498    1.4469    0.0288 N   0  0  0  0  0  0  0  0  0  0  0  0
   -4.8268    1.3361    1.3174 C   0  0  0  0  0  0  0  0  0  0  0  0
   -5.9345    0.5893    1.4227 N   0  0  0  0  0  0  0  0  0  0  0  0
   -6.3214    0.2537    0.2174 N   0  0  0  0  0  0  0  0  0  0  0  0
   -3.4237   -0.0643   -2.6583 N   0  0  0  0  0  0  0  0  0  0  0  0
   -2.4947   -0.2533   -1.6028 C   0  0  0  0  0  0  0  0  0  0  0  0
   -2.7009   -0.9902   -0.4979 N   0  0  0  0  0  0  0  0  0  0  0  0
   -1.7772   -1.1326    0.4735 C   0  0  0  0  0  0  0  0  0  0  0  0
   -0.5641   -0.4716    0.2911 C   0  0  0  0  0  0  0  0  0  0  0  0
    0.4592   -0.5400    1.2138 C   0  0  0  0  0  0  0  0  0  0  0  0
    1.6583    0.1288    1.0069 C   0  0  0  0  0  0  0  0  0  0  0  0
    2.7020    0.0828    1.9070 O   0  0  0  0  0  0  0  0  0  0  0  0
    3.9615   -0.3941    1.6265 C   0  0  0  0  0  0  0  0  0  0  0  0
    4.2658   -0.8728    0.3800 C   0  0  0  0  0  0  0  0  0  0  0  0
    5.5430   -1.3628    0.0751 C   0  0  0  0  0  0  0  0  0  0  0  0
    6.5308   -1.3744    1.0306 C   0  0  0  0  0  0  0  0  0  0  0  0
    7.7855   -1.8566    0.7283 F   0  0  0  0  0  0  0  0  0  0  0  0
    6.2244   -0.8963    2.2730 C   0  0  0  0  0  0  0  0  0  0  0  0
    4.9500   -0.4078    2.5760 C   0  0  0  0  0  0  0  0  0  0  0  0
    4.6467    0.0648    3.8038 F   0  0  0  0  0  0  0  0  0  0  0  0
    1.8090    0.8687   -0.1467 C   0  0  0  0  0  0  0  0  0  0  0  0
    2.9026    1.4642   -0.3106 O   0  0  0  0  0  0  0  0  0  0  0  0
    0.8180    0.9496   -1.0654 N   0  0  0  0  0  0  0  0  0  0  0  0
    1.0687    1.7474   -2.2401 C   0  0  0  0  0  0  0  0  0  0  0  0
   -0.3344    0.2902   -0.8381 C   0  0  0  0  0  0  0  0  0  0  0  0
   -1.3015    0.3824   -1.7574 N   0  0  0  0  0  0  0  0  0  0  0  0
  1  2  1  0
  2  3  1  0
  3  4  1  0
  4  5  2  0
  4  6  1  0
  6  7  1  1
  6  8  1  0
  8  9  1  0
  9 10  2  0
  9 11  1  0
 11 12  1  0
 12 13  1  1
 12 14  1  0
 16 15  1  6
 16 17  1  0
 17 18  1  0
 18 19  1  0
 19 20  2  0
 20 21  1  0
 21 22  2  0
 16 23  1  0
 23 24  1  0
 24 25  2  0
 25 26  1  0
 26 27  2  0
 27 28  1  0
 28 29  2  0
 29 30  1  0
 30 31  1  0
 31 32  2  0
 32 33  1  0
 33 34  2  0
 34 35  1  0
 34 36  1  0
 36 37  2  0
 37 38  1  0
 29 39  1  0
 39 40  2  0
 39 41  1  0
 41 42  1  0
 41 43  1  0
 43 44  2  0
 22 18  1  0
 44 24  1  0
 43 27  1  0
 37 31  1  0
M  END

