
     RDKit          3D

 23 22  0  0  0  0  0  0  0  0999 V2000
    4.2054   -2.1944    1.2034 C   0  0  0  0  0  0  0  0  0  0  0  0
    3.7647   -1.5943   -0.1294 C   0  0  0  0  0  0  0  0  0  0  0  0
    3.7698   -2.6076   -1.2089 C   0  0  0  0  0  0  0  0  0  0  0  0
    4.2789   -0.2807   -0.3600 C   0  0  0  0  0  0  0  0  0  0  0  0
    3.9465    0.4354   -1.5932 C   0  0  0  0  0  0  0  0  0  0  0  0
    2.4790    0.5922   -1.8242 N   0  0  0  0  0  0  0  0  0  0  0  0
    1.8313    1.1271   -0.6291 C   0  0  0  0  0  0  0  0  0  0  0  0
    2.4962    1.3475    0.3254 O   0  0  0  0  0  0  0  0  0  0  0  0
    0.2744    1.3248   -0.7459 C   0  0  2  0  0  0  0  0  0  0  0  0
    0.0556    1.7086    0.8531 C   0  0  0  0  0  0  0  0  0  0  0  0
    0.8909    2.9868    0.9444 C   0  0  0  0  0  0  0  0  0  0  0  0
    0.3095    4.0301   -0.0047 C   0  0  0  0  0  0  0  0  0  0  0  0
   -1.1217    4.2679    0.4465 C   0  0  0  0  0  0  0  0  0  0  0  0
   -1.7260    5.2521   -0.4495 N   0  0  0  0  0  4  0  0  0  0  0  0
   -0.2059   -0.0701   -0.6386 N   0  0  0  0  0  0  0  0  0  0  0  0
   -1.2226   -0.5335    0.2702 C   0  0  0  0  0  0  0  0  0  0  0  0
   -1.6103    0.4740    1.0323 O   0  0  0  0  0  0  0  0  0  0  0  0
   -1.7001   -1.8223    0.3259 C   0  0  0  0  0  0  0  0  0  0  0  0
   -2.1798   -2.9892    0.5367 C   0  0  0  0  0  0  0  0  0  0  0  0
   -3.5085   -3.3657    1.0045 C   0  0  0  0  0  0  0  0  0  0  0  0
   -4.6450   -2.8178    0.1843 C   0  0  0  0  0  0  0  0  0  0  0  0
   -5.4388   -3.6695   -0.6378 N   0  0  0  0  0  0  0  0  0  0  0  0
   -4.9434   -1.6013    0.1959 O   0  0  0  0  0  0  0  0  0  0  0  0
  1  2  1  0
  2  3  1  0
  2  4  1  0
  4  5  1  0
  5  6  1  0
  6  7  1  0
  7  8  2  0
  7  9  1  0
  9 10  1  1
 10 11  1  0
 11 12  1  0
 12 13  1  0
 13 14  1  0
  9 15  1  0
 15 16  1  0
 16 17  2  0
 16 18  1  0
 18 19  1  0
 19 20  1  0
 20 21  1  0
 21 22  1  0
 21 23  2  0
M  CHG  1  14   1
M  END

