
     RDKit          3D

 22 21  0  0  0  0  0  0  0  0999 V2000
   -6.3149    1.3153   -0.4734 C   0  0  0  0  0  0  0  0  0  0  0  0
   -5.3103    1.6412    0.5392 C   0  0  0  0  0  0  0  0  0  0  0  0
   -5.0007    3.0557    0.7699 C   0  0  0  0  0  0  0  0  0  0  0  0
   -4.8705    0.6275    1.4965 C   0  0  0  0  0  0  0  0  0  0  0  0
   -4.2389   -0.6104    0.9331 C   0  0  0  0  0  0  0  0  0  0  0  0
   -3.0053   -0.2369    0.1257 C   0  0  0  0  0  0  0  0  0  0  0  0
   -2.7434    0.9607    0.0041 O   0  0  0  0  0  0  0  0  0  0  0  0
   -2.2003   -1.2457   -0.4602 N   0  0  0  0  0  0  0  0  0  0  0  0
   -0.9564   -0.7809   -1.2917 C   0  0  1  0  0  0  0  0  0  0  0  0
   -0.5256    0.4082   -0.2272 C   0  0  0  0  0  0  0  0  0  0  0  0
    0.6107    0.9938   -0.7910 O   0  0  0  0  0  0  0  0  0  0  0  0
    0.0894   -1.8151   -0.7184 C   0  0  0  0  0  0  0  0  0  0  0  0
   -0.1077   -2.6013    0.1523 O   0  0  0  0  0  0  0  0  0  0  0  0
    1.3123   -1.7100   -1.3617 N   0  0  0  0  0  0  0  0  0  0  0  0
    2.3900   -2.5806   -0.9588 C   0  0  0  0  0  0  0  0  0  0  0  0
    2.6427   -2.2266    0.5163 C   0  0  0  0  0  0  0  0  0  0  0  0
    3.0106   -0.7371    0.5077 C   0  0  0  0  0  0  0  0  0  0  0  0
    4.2183   -0.6276   -0.3712 C   0  0  0  0  0  0  0  0  0  0  0  0
    4.7462    0.6689   -0.5569 N   0  0  0  0  0  0  0  0  0  0  0  0
    5.2508    1.5382    0.4328 C   0  0  0  0  0  0  0  0  0  0  0  0
    5.7640    2.8423    0.1568 N   0  0  0  0  0  0  0  0  0  0  0  0
    5.2391    1.1204    1.6571 N   0  0  0  0  0  4  0  0  0  0  0  0
  1  2  1  0
  2  3  1  0
  2  4  1  0
  4  5  1  0
  5  6  1  0
  6  7  2  0
  6  8  1  0
  8  9  1  0
  9 10  1  1
 10 11  1  0
  9 12  1  0
 12 13  2  0
 12 14  1  0
 14 15  1  0
 15 16  1  0
 16 17  1  0
 17 18  1  0
 18 19  1  0
 19 20  1  0
 20 21  1  0
 20 22  2  0
M  CHG  1  22   1
M  END

