
     RDKit          3D

 55 58  0  0  0  0  0  0  0  0999 V2000
    3.4542    3.4615   -2.3399 C   0  0  0  0  0  0  0  0  0  0  0  0
    4.2067    3.4680   -1.0374 C   0  0  0  0  0  0  0  0  0  0  0  0
    3.5923    2.4290   -0.1986 N   0  0  0  0  0  0  0  0  0  0  0  0
    2.2565    2.5526    0.0991 C   0  0  0  0  0  0  0  0  0  0  0  0
    1.5853    3.4956   -0.3231 O   0  0  0  0  0  0  0  0  0  0  0  0
    1.5012    1.4833    1.0067 C   0  0  2  0  0  0  0  0  0  0  0  0
    1.2334    0.3901   -0.2129 C   0  0  0  0  0  0  0  0  0  0  0  0
    2.6299    0.0385   -0.6758 C   0  0  0  0  0  0  0  0  0  0  0  0
    2.6933   -0.9618   -1.7764 C   0  0  0  0  0  0  0  0  0  0  0  0
    2.0794   -2.2099   -1.3804 N   0  0  0  0  0  0  0  0  0  0  0  0
    2.5064   -2.9707   -0.2697 C   0  0  0  0  0  0  0  0  0  0  0  0
    1.8777   -4.2084    0.1038 N   0  0  0  0  0  0  0  0  0  0  0  0
    3.5093   -2.4984    0.4222 N   0  0  0  0  0  4  0  0  0  0  0  0
    0.0682    2.1192    0.9573 N   0  0  0  0  0  0  0  0  0  0  0  0
   -0.9629    1.3443    1.5315 C   0  0  0  0  0  0  0  0  0  0  0  0
   -0.6879    0.2289    2.0261 O   0  0  0  0  0  0  0  0  0  0  0  0
   -2.3157    1.9351    1.4992 C   0  0  0  0  0  0  0  0  0  0  0  0
   -3.4025    1.0734    2.0227 C   0  0  0  0  0  0  0  0  0  0  0  0
   -3.5058   -0.1391    1.1927 C   0  0  0  0  0  0  0  0  0  0  0  0
   -2.8254   -1.2936    1.4578 C   0  0  0  0  0  0  0  0  0  0  0  0
   -2.9653   -2.4176    0.6357 C   0  0  0  0  0  0  0  0  0  0  0  0
   -3.7925   -2.3945   -0.4642 C   0  0  0  0  0  0  0  0  0  0  0  0
   -3.9246   -3.5320   -1.2828 O   0  0  0  0  0  0  0  0  0  0  0  0
   -4.4817   -1.2389   -0.7404 C   0  0  0  0  0  0  0  0  0  0  0  0
   -4.3294   -0.1547    0.0750 C   0  0  0  0  0  0  0  0  0  0  0  0
   -5.8297    1.7131    0.0796 C   0  0  0  0  0  0  0  0  0  0  0  0
   -4.7519    0.6695   -0.6457 C   0  0  2  0  0  0  0  0  0  0  0  0
   -4.6946   -0.3120    0.6979 C   0  0  0  0  0  0  0  0  0  0  0  0
   -6.0728   -0.7393    0.8559 N   0  0  0  0  0  0  0  0  0  0  0  0
   -6.7118   -1.7741    0.3705 N   0  0  0  0  0  0  0  0  0  0  0  0
   -7.9725   -1.7213    0.8112 C   0  0  0  0  0  0  0  0  0  0  0  0
   -8.1262   -0.6397    1.5828 N   0  0  0  0  0  0  0  0  0  0  0  0
   -6.9382   -0.0662    1.5837 N   0  0  0  0  0  0  0  0  0  0  0  0
   -3.5045    1.5070   -0.1779 N   0  0  0  0  0  0  0  0  0  0  0  0
   -2.2990    0.9059   -0.6273 C   0  0  0  0  0  0  0  0  0  0  0  0
   -2.2329   -0.2234   -1.3526 N   0  0  0  0  0  0  0  0  0  0  0  0
   -1.0715   -0.7443   -1.7484 C   0  0  0  0  0  0  0  0  0  0  0  0
    0.0738   -0.0655   -1.3765 C   0  0  0  0  0  0  0  0  0  0  0  0
    1.3114   -0.5440   -1.7493 C   0  0  0  0  0  0  0  0  0  0  0  0
    2.4287    0.1409   -1.3720 C   0  0  0  0  0  0  0  0  0  0  0  0
    3.6720   -0.3165   -1.7316 O   0  0  0  0  0  0  0  0  0  0  0  0
    4.5483   -0.6229   -0.6977 C   0  0  0  0  0  0  0  0  0  0  0  0
    4.2287   -0.4902    0.6371 C   0  0  0  0  0  0  0  0  0  0  0  0
    5.0935   -0.7926    1.6595 C   0  0  0  0  0  0  0  0  0  0  0  0
    6.3572   -1.2563    1.3695 C   0  0  0  0  0  0  0  0  0  0  0  0
    7.1986   -1.5503    2.3883 F   0  0  0  0  0  0  0  0  0  0  0  0
    6.7023   -1.3982    0.0412 C   0  0  0  0  0  0  0  0  0  0  0  0
    5.8241   -1.0910   -0.9792 C   0  0  0  0  0  0  0  0  0  0  0  0
    6.1436   -1.2233   -2.2861 F   0  0  0  0  0  0  0  0  0  0  0  0
    2.3120    1.2800   -0.6376 C   0  0  0  0  0  0  0  0  0  0  0  0
    3.3236    1.9610   -0.2572 O   0  0  0  0  0  0  0  0  0  0  0  0
    1.1234    1.7598   -0.2667 N   0  0  0  0  0  0  0  0  0  0  0  0
    1.0086    2.9796    0.5191 C   0  0  0  0  0  0  0  0  0  0  0  0
    0.0176    1.0845   -0.6384 C   0  0  0  0  0  0  0  0  0  0  0  0
   -1.1617    1.5698   -0.2645 N   0  0  0  0  0  0  0  0  0  0  0  0
  1  2  1  0
  2  3  1  0
  3  4  1  0
  4  5  2  0
  4  6  1  0
  6  7  1  6
  7  8  1  0
  8  9  1  0
  9 10  1  0
 10 11  1  0
 11 12  1  0
 11 13  2  0
  6 14  1  0
 14 15  1  0
 15 16  2  0
 15 17  1  0
 17 18  1  0
 18 19  1  0
 19 20  2  0
 20 21  1  0
 21 22  2  0
 22 23  1  0
 22 24  1  0
 24 25  2  0
 27 26  1  1
 27 28  1  0
 28 29  1  0
 29 30  1  0
 30 31  2  0
 31 32  1  0
 32 33  2  0
 27 34  1  0
 34 35  1  0
 35 36  2  0
 36 37  1  0
 37 38  2  0
 38 39  1  0
 39 40  2  0
 40 41  1  0
 41 42  1  0
 42 43  2  0
 43 44  1  0
 44 45  2  0
 45 46  1  0
 45 47  1  0
 47 48  2  0
 48 49  1  0
 40 50  1  0
 50 51  2  0
 50 52  1  0
 52 53  1  0
 52 54  1  0
 54 55  2  0
 25 19  1  0
 33 29  1  0
 55 35  1  0
 54 38  1  0
 48 42  1  0
M  CHG  1  13   1
M  END

