
     RDKit          3D

 22 21  0  0  0  0  0  0  0  0999 V2000
    5.0812    0.9019   -2.0870 C   0  0  0  0  0  0  0  0  0  0  0  0
    4.9092    0.9619   -0.5589 C   0  0  0  0  0  0  0  0  0  0  0  0
    4.0896    2.3700   -0.4356 C   0  0  2  0  0  0  0  0  0  0  0  0
    3.9758    2.3117    1.1893 C   0  0  0  0  0  0  0  0  0  0  0  0
    2.6429    1.7094   -0.7582 C   0  0  0  0  0  0  0  0  0  0  0  0
    2.3665    0.7138    0.2317 N   0  0  0  0  0  0  0  0  0  0  0  0
    1.1759   -0.0395    0.2249 C   0  0  0  0  0  0  0  0  0  0  0  0
    0.3431    0.1583   -0.6574 O   0  0  0  0  0  0  0  0  0  0  0  0
    0.9278   -1.1159    1.3373 C   0  0  2  0  0  0  0  0  0  0  0  0
    1.9124   -2.2553    0.7714 C   0  0  0  0  0  0  0  0  0  0  0  0
    1.6638   -2.7723   -0.5120 C   0  0  0  0  0  0  0  0  0  0  0  0
    1.6833   -1.8970   -1.7239 C   0  0  0  0  0  0  0  0  0  0  0  0
    0.6204   -3.8293   -0.6942 C   0  0  0  0  0  0  0  0  0  0  0  0
   -0.4316   -1.6686    0.7880 N   0  0  0  0  0  0  0  0  0  0  0  0
   -1.5229   -0.7948    0.8371 C   0  0  0  0  0  0  0  0  0  0  0  0
   -1.4689    0.3546    1.2815 O   0  0  0  0  0  0  0  0  0  0  0  0
   -2.8091   -1.3113    0.3159 C   0  0  0  0  0  0  0  0  0  0  0  0
   -3.9143   -0.2847    0.4393 C   0  0  0  0  0  0  0  0  0  0  0  0
   -3.5482    0.9690   -0.3433 C   0  0  0  0  0  0  0  0  0  0  0  0
   -4.6864    1.9525   -0.1660 C   0  0  0  0  0  0  0  0  0  0  0  0
   -5.9430    1.3141   -0.7055 C   0  0  0  0  0  0  0  0  0  0  0  0
   -7.0674    2.2516   -0.5472 N   0  0  0  0  0  4  0  0  0  0  0  0
  1  2  1  0
  2  3  1  0
  3  4  1  1
  3  5  1  0
  5  6  1  0
  6  7  1  0
  7  8  2  0
  7  9  1  0
  9 10  1  6
 10 11  1  0
 11 12  1  0
 11 13  1  0
  9 14  1  0
 14 15  1  0
 15 16  2  0
 15 17  1  0
 17 18  1  0
 18 19  1  0
 19 20  1  0
 20 21  1  0
 21 22  1  0
M  CHG  1  22   1
M  END

