
     RDKit          3D

 25 25  0  0  0  0  0  0  0  0999 V2000
   -2.1937   -0.4728    4.1420 C   0  0  0  0  0  0  0  0  0  0  0  0
   -2.1609    0.7415    3.2296 C   0  0  0  0  0  0  0  0  0  0  0  0
   -2.3522    0.2893    1.8622 N   0  0  0  0  0  0  0  0  0  0  0  0
   -1.4977   -0.6066    1.1995 C   0  0  0  0  0  0  0  0  0  0  0  0
   -0.5361   -1.0596    1.7421 O   0  0  0  0  0  0  0  0  0  0  0  0
   -1.9496   -0.9303   -0.3008 C   0  0  2  0  0  0  0  0  0  0  0  0
   -2.9218   -2.2338    0.0370 C   0  0  0  0  0  0  0  0  0  0  0  0
   -4.0333   -1.7565    0.8794 C   0  0  0  0  0  0  0  0  0  0  0  0
   -5.0037   -0.8272    0.3189 C   0  0  0  0  0  0  0  0  0  0  0  0
   -4.5736    0.4253   -0.2049 N   0  0  0  0  0  0  0  0  0  0  0  0
   -5.5144    1.3283   -0.7463 C   0  0  0  0  0  0  0  0  0  0  0  0
   -5.1897    2.5881   -1.2880 N   0  0  0  0  0  0  0  0  0  0  0  0
   -6.7589    0.9415   -0.7305 N   0  0  0  0  0  4  0  0  0  0  0  0
   -0.7200   -1.8728   -0.6311 N   0  0  0  0  0  0  0  0  0  0  0  0
    0.5346   -1.2340   -0.6333 C   0  0  0  0  0  0  0  0  0  0  0  0
    0.5569   -0.0121   -0.3852 O   0  0  0  0  0  0  0  0  0  0  0  0
    1.8244   -1.8996   -0.9038 C   0  0  0  0  0  0  0  0  0  0  0  0
    2.9317   -1.2299   -0.8421 C   0  0  0  0  0  0  0  0  0  0  0  0
    4.0647   -0.4808   -0.8338 C   0  0  0  0  0  0  0  0  0  0  0  0
    4.3209    0.6630   -0.0630 C   0  0  0  0  0  0  0  0  0  0  0  0
    5.5230    1.2838   -0.1891 C   0  0  0  0  0  0  0  0  0  0  0  0
    6.5028    0.8679   -1.0186 C   0  0  0  0  0  0  0  0  0  0  0  0
    7.7378    1.4856   -1.1621 O   0  0  0  0  0  0  0  0  0  0  0  0
    6.2904   -0.2467   -1.7892 C   0  0  0  0  0  0  0  0  0  0  0  0
    5.1184   -0.8813   -1.6890 C   0  0  0  0  0  0  0  0  0  0  0  0
  1  2  1  0
  2  3  1  0
  3  4  1  0
  4  5  2  0
  4  6  1  0
  6  7  1  1
  7  8  1  0
  8  9  1  0
  9 10  1  0
 10 11  1  0
 11 12  1  0
 11 13  2  0
  6 14  1  0
 14 15  1  0
 15 16  2  0
 15 17  1  0
 17 18  1  0
 18 19  1  0
 19 20  2  0
 20 21  1  0
 21 22  2  0
 22 23  1  0
 22 24  1  0
 24 25  2  0
 25 19  1  0
M  CHG  1  13   1
M  END

