
     RDKit          3D

 18 18  0  0  0  0  0  0  0  0999 V2000
   -6.1548    0.9591    1.8395 C   0  0  0  0  0  0  0  0  0  0  0  0
   -4.7994    0.3096    1.9753 C   0  0  0  0  0  0  0  0  0  0  0  0
   -4.2257   -0.0894    0.6767 C   0  0  0  0  0  0  0  0  0  0  0  0
   -4.8646    0.1226   -0.3766 O   0  0  0  0  0  0  0  0  0  0  0  0
   -2.9695   -0.7043    0.6246 N   0  0  0  0  0  0  0  0  0  0  0  0
   -2.4360   -1.0982   -0.8079 C   0  0  1  0  0  0  0  0  0  0  0  0
   -2.5588    0.4497   -1.4167 C   0  0  0  0  0  0  0  0  0  0  0  0
   -0.8769   -1.0062   -0.5036 C   0  0  0  0  0  0  0  0  0  0  0  0
   -0.5836   -0.6884    0.6364 O   0  0  0  0  0  0  0  0  0  0  0  0
    0.0724   -1.2692   -1.4685 N   0  0  0  0  0  0  0  0  0  0  0  0
    1.4818   -1.1493   -1.0631 C   0  0  0  0  0  0  0  0  0  0  0  0
    1.6480    0.2941   -0.6183 C   0  0  0  0  0  0  0  0  0  0  0  0
    3.0532    0.4775   -0.1925 C   0  0  0  0  0  0  0  0  0  0  0  0
    4.0558    0.8678   -1.0867 C   0  0  0  0  0  0  0  0  0  0  0  0
    5.3629    1.0323   -0.6557 C   0  0  0  0  0  0  0  0  0  0  0  0
    5.6656    0.8070    0.6665 C   0  0  0  0  0  0  0  0  0  0  0  0
    4.7042    0.4159    1.6029 C   0  0  0  0  0  0  0  0  0  0  0  0
    3.4254    0.2695    1.1123 C   0  0  0  0  0  0  0  0  0  0  0  0
  1  2  1  0
  2  3  1  0
  3  4  2  0
  3  5  1  0
  5  6  1  0
  6  7  1  6
  6  8  1  0
  8  9  2  0
  8 10  1  0
 10 11  1  0
 11 12  1  0
 12 13  1  0
 13 14  2  0
 14 15  1  0
 15 16  2  0
 16 17  1  0
 17 18  2  0
 18 13  1  0
M  END

