
     RDKit          3D

 21 20  0  0  0  0  0  0  0  0999 V2000
    6.7523   -1.9433    1.0914 C   0  0  0  0  0  0  0  0  0  0  0  0
    5.8172   -1.4983    0.0303 C   0  0  0  0  0  0  0  0  0  0  0  0
    4.8845   -0.4061    0.8594 C   0  0  2  0  0  0  0  0  0  0  0  0
    4.3768   -1.5672    1.9422 C   0  0  0  0  0  0  0  0  0  0  0  0
    3.6000   -0.6638   -0.1302 C   0  0  0  0  0  0  0  0  0  0  0  0
    2.5288    0.2474    0.3962 C   0  0  0  0  0  0  0  0  0  0  0  0
    2.6967    0.9849    1.3950 O   0  0  0  0  0  0  0  0  0  0  0  0
    1.3240    0.2074   -0.3227 N   0  0  0  0  0  0  0  0  0  0  0  0
    0.1859    1.2199    0.2768 C   0  0  1  0  0  0  0  0  0  0  0  0
   -0.1216    1.8210   -1.2030 C   0  0  0  0  0  0  0  0  0  0  0  0
   -1.0632    2.8989   -1.1225 C   0  0  0  0  0  0  0  0  0  0  0  0
   -2.3833    2.7050   -0.5903 C   0  0  0  0  0  0  0  0  0  0  0  0
   -0.5677    4.3022   -0.9709 C   0  0  0  0  0  0  0  0  0  0  0  0
   -0.9248    0.0504    0.2961 C   0  0  0  0  0  0  0  0  0  0  0  0
   -0.4667   -1.1018    0.6316 O   0  0  0  0  0  0  0  0  0  0  0  0
   -2.2299    0.2423   -0.0122 N   0  0  0  0  0  0  0  0  0  0  0  0
   -3.1445   -0.8737    0.0484 C   0  0  0  0  0  0  0  0  0  0  0  0
   -4.5370   -0.4702   -0.3764 C   0  0  0  0  0  0  0  0  0  0  0  0
   -5.3630   -1.6945   -0.2379 C   0  0  0  0  0  0  0  0  0  0  0  0
   -5.0963   -2.7663   -1.0632 O   0  0  0  0  0  1  0  0  0  0  0  0
   -6.2684   -1.6941    0.6314 O   0  0  0  0  0  0  0  0  0  0  0  0
  1  2  1  0
  2  3  1  0
  3  4  1  1
  3  5  1  0
  5  6  1  0
  6  7  2  0
  6  8  1  0
  8  9  1  0
  9 10  1  6
 10 11  1  0
 11 12  1  0
 11 13  1  0
  9 14  1  0
 14 15  2  0
 14 16  1  0
 16 17  1  0
 17 18  1  0
 18 19  1  0
 19 20  1  0
 19 21  2  0
M  RAD  1  20   2
M  END

