
     RDKit          3D

 45 47  0  0  0  0  0  0  0  0999 V2000
   -4.5458   -0.8257   -1.5408 C   0  0  0  0  0  0  0  0  0  0  0  0
   -3.5819   -0.6115   -0.4202 C   0  0  0  0  0  0  0  0  0  0  0  0
   -3.0575   -1.6326    0.1377 O   0  0  0  0  0  0  0  0  0  0  0  0
   -3.2383    0.6134    0.0317 N   0  0  0  0  0  0  0  0  0  0  0  0
   -2.2500    0.8879    1.1856 C   0  0  1  0  0  0  0  0  0  0  0  0
   -2.1540   -0.6257    1.7920 C   0  0  0  0  0  0  0  0  0  0  0  0
   -0.9399    0.8233    0.3088 C   0  0  0  0  0  0  0  0  0  0  0  0
   -0.9051    0.6056   -0.8765 O   0  0  0  0  0  0  0  0  0  0  0  0
    0.2607    1.0475    1.0186 N   0  0  0  0  0  0  0  0  0  0  0  0
    1.5807    1.0389    0.4458 C   0  0  0  0  0  0  0  0  0  0  0  0
    1.8278   -0.3281   -0.1590 C   0  0  0  0  0  0  0  0  0  0  0  0
    3.1723   -0.4664   -0.7896 C   0  0  0  0  0  0  0  0  0  0  0  0
    4.2360   -0.2431    0.1959 C   0  0  0  0  0  0  0  0  0  0  0  0
    5.5865   -0.3227   -0.1325 O   0  0  0  0  0  1  0  0  0  0  0  0
    4.0086    0.0392    1.4180 O   0  0  0  0  0  0  0  0  0  0  0  0
    6.5130   -1.1895    0.6821 C   0  0  0  0  0  0  0  0  0  0  0  0
    5.0915   -1.8624    0.1671 C   0  0  2  0  0  0  0  0  0  0  0  0
    5.0800   -1.0481   -1.2653 C   0  0  0  0  0  0  0  0  0  0  0  0
    5.0715    0.3442   -0.9977 N   0  0  0  0  0  0  0  0  0  0  0  0
    4.0356    1.1851   -0.8305 N   0  0  0  0  0  0  0  0  0  0  0  0
    4.5341    2.3978   -0.6001 C   0  0  0  0  0  0  0  0  0  0  0  0
    5.8745    2.3373   -0.6190 N   0  0  0  0  0  0  0  0  0  0  0  0
    6.1743    1.0732   -0.8636 N   0  0  0  0  0  0  0  0  0  0  0  0
    4.1931   -0.8078    0.9218 N   0  0  0  0  0  0  0  0  0  0  0  0
    2.7862   -1.0637    0.7113 C   0  0  0  0  0  0  0  0  0  0  0  0
    2.3168   -2.0589   -0.0231 N   0  0  0  0  0  0  0  0  0  0  0  0
    1.0302   -2.3476   -0.2555 C   0  0  0  0  0  0  0  0  0  0  0  0
    0.1059   -1.4835    0.3597 C   0  0  0  0  0  0  0  0  0  0  0  0
   -1.2409   -1.6725    0.1991 C   0  0  0  0  0  0  0  0  0  0  0  0
   -2.1141   -0.8083    0.8152 C   0  0  0  0  0  0  0  0  0  0  0  0
   -3.4600   -1.0343    0.6275 O   0  0  0  0  0  0  0  0  0  0  0  0
   -4.3228   -0.1212    0.0489 C   0  0  0  0  0  0  0  0  0  0  0  0
   -3.8994    1.1127   -0.3959 C   0  0  0  0  0  0  0  0  0  0  0  0
   -4.7865    2.0014   -0.9692 C   0  0  0  0  0  0  0  0  0  0  0  0
   -6.1302    1.6732   -1.1121 C   0  0  0  0  0  0  0  0  0  0  0  0
   -6.9560    2.5855   -1.6825 F   0  0  0  0  0  0  0  0  0  0  0  0
   -6.5463    0.4443   -0.6679 C   0  0  0  0  0  0  0  0  0  0  0  0
   -5.6527   -0.4580   -0.0874 C   0  0  0  0  0  0  0  0  0  0  0  0
   -6.0576   -1.6709    0.3522 F   0  0  0  0  0  0  0  0  0  0  0  0
   -1.6101    0.2215    1.5754 C   0  0  0  0  0  0  0  0  0  0  0  0
   -2.4224    0.9968    2.1278 O   0  0  0  0  0  0  0  0  0  0  0  0
   -0.2990    0.4266    1.7472 N   0  0  0  0  0  0  0  0  0  0  0  0
    0.2398    1.5126    2.5491 C   0  0  0  0  0  0  0  0  0  0  0  0
    0.5568   -0.4380    1.1305 C   0  0  0  0  0  0  0  0  0  0  0  0
    1.8944   -0.2475    1.2921 N   0  0  0  0  0  0  0  0  0  0  0  0
  1  2  1  0
  2  3  2  0
  2  4  1  0
  4  5  1  0
  5  6  1  1
  5  7  1  0
  7  8  2  0
  7  9  1  0
  9 10  1  0
 10 11  1  0
 11 12  1  0
 12 13  1  0
 13 14  1  0
 13 15  2  0
 17 16  1  1
 17 18  1  0
 18 19  1  0
 19 20  1  0
 20 21  2  0
 21 22  1  0
 22 23  2  0
 17 24  1  0
 24 25  1  0
 25 26  2  0
 26 27  1  0
 27 28  2  0
 28 29  1  0
 29 30  2  0
 30 31  1  0
 31 32  1  0
 32 33  2  0
 33 34  1  0
 34 35  2  0
 35 36  1  0
 35 37  1  0
 37 38  2  0
 38 39  1  0
 30 40  1  0
 40 41  2  0
 40 42  1  0
 42 43  1  0
 42 44  1  0
 44 45  2  0
 23 19  1  0
 45 25  1  0
 44 28  1  0
 38 32  1  0
M  RAD  1  14   2
M  END

