175426918
     RDKit          3D

 43 46  0  0  1  0  0  0  0  0999 V2000
   -3.5767   -0.2143   -1.1229 O   0  0  0  0  0  0  0  0  0  0  0  0
   -2.4881   -0.2242    2.1938 O   0  0  0  0  0  0  0  0  0  0  0  0
   -4.7423   -1.3856    1.4109 O   0  0  0  0  0  0  0  0  0  0  0  0
    6.8149    0.0594   -0.1268 O   0  0  0  0  0  0  0  0  0  0  0  0
   -5.3932    1.6996   -2.1399 O   0  0  0  0  0  0  0  0  0  0  0  0
   -1.3131   -0.4654   -0.5666 N   0  0  0  0  0  0  0  0  0  0  0  0
    3.3299   -0.3151   -0.7760 N   0  0  0  0  0  0  0  0  0  0  0  0
    0.4861   -0.0277   -1.7188 N   0  0  0  0  0  0  0  0  0  0  0  0
   -0.0889   -1.1671    1.4712 N   0  0  0  0  0  0  0  0  0  0  0  0
    2.2521   -1.0562    1.2664 N   0  0  0  0  0  0  0  0  0  0  0  0
   -2.6603   -0.6233   -0.1828 C   0  0  1  0  0  0  0  0  0  0  0  0
   -3.0521    0.2081    1.0251 C   0  0  1  0  0  0  0  0  0  0  0  0
   -4.5634   -0.0740    0.9868 C   0  0  1  0  0  0  0  0  0  0  0  0
   -4.7764    0.0257   -0.5119 C   0  0  1  0  0  0  0  0  0  0  0  0
   -5.2387    1.4661   -0.7710 C   0  0  0  0  0  0  0  0  0  0  0  0
    4.6313   -0.5048   -0.1801 C   0  0  2  0  0  0  0  0  0  0  0  0
   -0.2358   -0.7210    0.2050 C   0  0  0  0  0  0  0  0  0  0  0  0
    4.8284    0.3466    1.0551 C   0  0  0  0  0  0  0  0  0  0  0  0
    0.9099   -0.4476   -0.5138 C   0  0  0  0  0  0  0  0  0  0  0  0
   -0.8546   -0.0414   -1.7424 C   0  0  0  0  0  0  0  0  0  0  0  0
    5.7597   -0.0912   -1.0547 C   0  0  0  0  0  0  0  0  0  0  0  0
    2.1823   -0.6095    0.0021 C   0  0  0  0  0  0  0  0  0  0  0  0
    6.2838    0.7925    0.9312 C   0  0  0  0  0  0  0  0  0  0  0  0
    1.1392   -1.3212    1.9632 C   0  0  0  0  0  0  0  0  0  0  0  0
   -2.5632    0.5060    2.8600 H   0  0  0  0  0  0  0  0  0  0  0  0
   -4.9992   -1.9513    0.6153 H   0  0  0  0  0  0  0  0  0  0  0  0
   -6.1735    2.2773   -2.3195 H   0  0  0  0  0  0  0  0  0  0  0  0
    3.2617    0.0290   -1.7505 H   0  0  0  0  0  0  0  0  0  0  0  0
   -2.9184   -1.6858    0.0955 H   0  0  0  0  0  0  0  0  0  0  0  0
   -2.9464    1.2927    0.8401 H   0  0  0  0  0  0  0  0  0  0  0  0
   -5.1320    0.6627    1.5512 H   0  0  0  0  0  0  0  0  0  0  0  0
   -5.5756   -0.6587   -0.8537 H   0  0  0  0  0  0  0  0  0  0  0  0
   -6.1938    1.6310   -0.2305 H   0  0  0  0  0  0  0  0  0  0  0  0
   -4.5142    2.1942   -0.3969 H   0  0  0  0  0  0  0  0  0  0  0  0
    4.7508   -1.5750    0.1082 H   0  0  0  0  0  0  0  0  0  0  0  0
    4.1493    1.2177    1.0370 H   0  0  0  0  0  0  0  0  0  0  0  0
    4.6620   -0.2232    1.9881 H   0  0  0  0  0  0  0  0  0  0  0  0
   -1.4103    0.2654   -2.6343 H   0  0  0  0  0  0  0  0  0  0  0  0
    5.5629    0.8329   -1.6080 H   0  0  0  0  0  0  0  0  0  0  0  0
    6.0254   -0.9533   -1.7090 H   0  0  0  0  0  0  0  0  0  0  0  0
    6.8067    0.6184    1.8719 H   0  0  0  0  0  0  0  0  0  0  0  0
    6.3142    1.8881    0.7008 H   0  0  0  0  0  0  0  0  0  0  0  0
    1.2599   -1.6763    2.9713 H   0  0  0  0  0  0  0  0  0  0  0  0
  1 11  1  0
  1 14  1  0
 12  2  1  0
 13  3  1  0
  4 21  1  0
  4 23  1  0
  5 15  1  0
 11  6  1  0
  6 17  1  0
  6 20  1  0
 16  7  1  0
  7 22  1  0
  8 19  1  0
  8 20  2  0
  9 17  1  0
  9 24  2  0
 10 22  2  0
 10 24  1  0
 11 12  1  0
 12 13  1  0
 13 14  1  0
 14 15  1  0
 16 18  1  0
 16 21  1  0
 17 19  2  0
 18 23  1  0
 19 22  1  0
  2 25  1  0
  3 26  1  0
  5 27  1  0
  7 28  1  0
 11 29  1  1
 12 30  1  6
 13 31  1  1
 14 32  1  6
 15 33  1  0
 15 34  1  0
 16 35  1  1
 18 36  1  0
 18 37  1  0
 20 38  1  0
 21 39  1  0
 21 40  1  0
 23 41  1  0
 23 42  1  0
 24 43  1  0
M  END

