175427089
     RDKit          3D

 16 14  0  0  1  0  0  0  0  0999 V2000
    1.3703   -0.1179    0.1345 C   0  0  0  0  0  0  0  0  0  0  0  0
   -0.9991   -0.5419    0.2544 C   0  0  0  0  0  0  0  0  0  0  0  0
    0.0895    0.1590   -0.5575 C   0  0  0  0  0  0  0  0  0  0  0  0
   -0.0038   -0.0073    0.0072 N   0  0  0  0  0  4  0  0  0  0  0  0
    1.9229   -1.2409    0.0950 O   0  0  0  0  0  0  0  0  0  0  0  0
    1.9925    0.8886    0.8552 O   0  0  0  0  0  1  0  0  0  0  0  0
   -0.0887    1.5177   -0.6005 O   0  0  0  0  0  0  0  0  0  0  0  0
   -0.6850   -0.6224    1.3315 H   0  0  0  0  0  0  0  0  0  0  0  0
   -1.9791   -0.0612    0.1315 H   0  0  0  0  0  0  0  0  0  0  0  0
   -1.0811   -1.5649   -0.1858 H   0  0  0  0  0  0  0  0  0  0  0  0
    0.0946   -0.2617   -1.6006 H   0  0  0  0  0  0  0  0  0  0  0  0
   -0.6215   -0.7862   -0.2747 H   0  0  0  0  0  0  0  0  0  0  0  0
   -0.3686    0.8785   -0.3825 H   0  0  0  0  0  0  0  0  0  0  0  0
    0.0502    0.0839    1.0356 H   0  0  0  0  0  0  0  0  0  0  0  0
    0.9438   -0.1689   -0.3857 H   0  0  0  0  0  0  0  0  0  0  0  0
   -0.6369    1.8456    0.1424 H   0  0  0  0  0  0  0  0  0  0  0  0
  1  3  1  0
  2  3  1  0
  1  5  2  0
  1  6  1  0
  3  7  1  0
  2  8  1  0
  2  9  1  0
  2 10  1  0
  3 11  1  0
  4 12  1  0
  4 13  1  0
  4 14  1  0
  4 15  1  0
  7 16  1  0
M  CHG  2   4   1   6  -1
M  END

