175427024
     RDKit          3D

102106  0  0  1  0  0  0  0  0999 V2000
    2.7781   -1.8889    1.4805 O   0  0  0  0  0  0  0  0  0  0  0  0
   -1.2998    0.5659   -0.7745 O   0  0  0  0  0  0  0  0  0  0  0  0
   -1.8831    1.3692    1.3633 O   0  0  0  0  0  0  0  0  0  0  0  0
    5.4977    1.7869    3.0500 O   0  0  0  0  0  0  0  0  0  0  0  0
    6.2084    1.5096   -0.3364 O   0  0  0  0  0  0  0  0  0  0  0  0
   -4.7087    2.9331   -0.7875 O   0  0  0  0  0  0  0  0  0  0  0  0
    0.8514   -0.3241   -0.6888 N   0  0  0  0  0  0  0  0  0  0  0  0
    4.0186   -0.1813    0.6173 N   0  0  0  0  0  0  0  0  0  0  0  0
   -2.5597   -0.7693    0.8668 N   0  0  0  0  0  0  0  0  0  0  0  0
   -5.0283    0.8977    0.2470 N   0  0  0  0  0  0  0  0  0  0  0  0
    7.2354    2.9477    1.0866 N   0  0  0  0  0  0  0  0  0  0  0  0
   -6.8202    0.2852   -1.9284 N   0  0  0  0  0  0  0  0  0  0  0  0
   -7.0521    1.9169   -4.0803 N   0  0  0  0  0  0  0  0  0  0  0  0
    2.8229   -0.7866   -1.9060 C   0  0  1  0  0  0  0  0  0  0  0  0
    2.1994    0.4484   -2.4514 C   0  0  1  0  0  0  0  0  0  0  0  0
    1.9909   -1.1196   -0.6098 C   0  0  1  0  0  0  0  0  0  0  0  0
    2.6306   -1.8741   -2.9283 C   0  0  0  0  0  0  0  0  0  0  0  0
    1.3449   -0.0031   -3.6208 C   0  0  0  0  0  0  0  0  0  0  0  0
    1.3640    0.9507   -1.3244 C   0  0  0  0  0  0  0  0  0  0  0  0
    2.0950   -1.1998   -4.1634 C   0  0  0  0  0  0  0  0  0  0  0  0
    2.9259   -1.0630    0.5027 C   0  0  0  0  0  0  0  0  0  0  0  0
   -0.5095   -0.3471   -0.3065 C   0  0  0  0  0  0  0  0  0  0  0  0
   -1.2008   -1.3177    0.6189 C   0  0  2  0  0  0  0  0  0  0  0  0
   -1.4758   -2.6580    0.0161 C   0  0  0  0  0  0  0  0  0  0  0  0
    5.0106   -0.1560    1.6829 C   0  0  1  0  0  0  0  0  0  0  0  0
   -2.2336   -2.5021   -1.3051 C   0  0  0  0  0  0  0  0  0  0  0  0
   -0.3647   -3.6168   -0.1305 C   0  0  0  0  0  0  0  0  0  0  0  0
   -2.5187   -3.3612    0.9378 C   0  0  0  0  0  0  0  0  0  0  0  0
   -4.9219    0.8964    2.6902 C   0  0  0  0  0  0  0  0  0  0  0  0
   -4.2236    1.0404    1.4185 C   0  0  1  0  0  0  0  0  0  0  0  0
   -2.8436    0.5591    1.2287 C   0  0  0  0  0  0  0  0  0  0  0  0
    5.8199   -1.3713    1.8199 C   0  0  0  0  0  0  0  0  0  0  0  0
   -5.6371   -0.3674    2.9852 C   0  0  0  0  0  0  0  0  0  0  0  0
   -5.9784    2.0388    2.7279 C   0  0  0  0  0  0  0  0  0  0  0  0
    5.6014    1.1605    1.9261 C   0  0  0  0  0  0  0  0  0  0  0  0
   -7.1382   -0.3205    2.7290 C   0  0  0  0  0  0  0  0  0  0  0  0
   -6.8634    1.8278    3.9085 C   0  0  0  0  0  0  0  0  0  0  0  0
   -7.8530    0.7230    3.5234 C   0  0  0  0  0  0  0  0  0  0  0  0
    7.8610    3.5469   -0.0838 C   0  0  0  0  0  0  0  0  0  0  0  0
    6.6815   -1.8900    0.7427 C   0  0  0  0  0  0  0  0  0  0  0  0
    9.0222    4.3874   -0.1126 C   0  0  0  0  0  0  0  0  0  0  0  0
    9.2696    2.9081   -0.4157 C   0  0  0  0  0  0  0  0  0  0  0  0
    6.3424    1.8678    0.8999 C   0  0  0  0  0  0  0  0  0  0  0  0
    7.8578   -1.0657    0.3328 C   0  0  0  0  0  0  0  0  0  0  0  0
   -5.2415    1.8231   -0.7888 C   0  0  0  0  0  0  0  0  0  0  0  0
   -6.1246    1.4647   -1.9252 C   0  0  0  0  0  0  0  0  0  0  0  0
   -6.2834    2.2402   -3.0360 C   0  0  0  0  0  0  0  0  0  0  0  0
   -7.5944   -0.0538   -2.9636 C   0  0  0  0  0  0  0  0  0  0  0  0
   -7.7344    0.7514   -4.0744 C   0  0  0  0  0  0  0  0  0  0  0  0
    4.1133    0.5623   -0.1429 H   0  0  0  0  0  0  0  0  0  0  0  0
   -3.3477   -1.4053    0.7660 H   0  0  0  0  0  0  0  0  0  0  0  0
   -5.5455   -0.0456    0.1286 H   0  0  0  0  0  0  0  0  0  0  0  0
    7.4581    3.3235    2.0144 H   0  0  0  0  0  0  0  0  0  0  0  0
    3.8838   -0.7000   -1.6553 H   0  0  0  0  0  0  0  0  0  0  0  0
    2.9203    1.2168   -2.8000 H   0  0  0  0  0  0  0  0  0  0  0  0
    1.8103   -2.2186   -0.7900 H   0  0  0  0  0  0  0  0  0  0  0  0
    1.8724   -2.6050   -2.5229 H   0  0  0  0  0  0  0  0  0  0  0  0
    3.5857   -2.3688   -3.1662 H   0  0  0  0  0  0  0  0  0  0  0  0
    1.2131    0.8122   -4.3474 H   0  0  0  0  0  0  0  0  0  0  0  0
    0.3306   -0.3439   -3.3170 H   0  0  0  0  0  0  0  0  0  0  0  0
    1.9805    1.5050   -0.6187 H   0  0  0  0  0  0  0  0  0  0  0  0
    0.5334    1.5537   -1.7064 H   0  0  0  0  0  0  0  0  0  0  0  0
    1.3817   -1.8972   -4.6743 H   0  0  0  0  0  0  0  0  0  0  0  0
    2.8890   -0.9231   -4.8746 H   0  0  0  0  0  0  0  0  0  0  0  0
   -0.6026   -1.2784    1.5322 H   0  0  0  0  0  0  0  0  0  0  0  0
    4.3031   -0.2895    2.6395 H   0  0  0  0  0  0  0  0  0  0  0  0
   -1.6205   -1.9924   -2.0816 H   0  0  0  0  0  0  0  0  0  0  0  0
   -3.2002   -2.0527   -1.1091 H   0  0  0  0  0  0  0  0  0  0  0  0
   -2.4173   -3.5454   -1.6733 H   0  0  0  0  0  0  0  0  0  0  0  0
   -0.0118   -3.6490   -1.1911 H   0  0  0  0  0  0  0  0  0  0  0  0
   -0.7295   -4.6550    0.1333 H   0  0  0  0  0  0  0  0  0  0  0  0
    0.4303   -3.4196    0.5991 H   0  0  0  0  0  0  0  0  0  0  0  0
   -2.5432   -2.8204    1.9277 H   0  0  0  0  0  0  0  0  0  0  0  0
   -3.5011   -3.3926    0.4605 H   0  0  0  0  0  0  0  0  0  0  0  0
   -2.1169   -4.3593    1.1827 H   0  0  0  0  0  0  0  0  0  0  0  0
   -4.2325    1.1893    3.5509 H   0  0  0  0  0  0  0  0  0  0  0  0
   -4.0217    2.2347    1.3875 H   0  0  0  0  0  0  0  0  0  0  0  0
    5.1139   -2.1966    2.1632 H   0  0  0  0  0  0  0  0  0  0  0  0
    6.4673   -1.2393    2.7445 H   0  0  0  0  0  0  0  0  0  0  0  0
   -5.5272   -0.5483    4.0936 H   0  0  0  0  0  0  0  0  0  0  0  0
   -5.2374   -1.2790    2.5022 H   0  0  0  0  0  0  0  0  0  0  0  0
   -6.5993    1.8284    1.8181 H   0  0  0  0  0  0  0  0  0  0  0  0
   -5.5035    3.0147    2.6594 H   0  0  0  0  0  0  0  0  0  0  0  0
   -7.5154   -1.3057    3.0837 H   0  0  0  0  0  0  0  0  0  0  0  0
   -7.3687   -0.3135    1.6379 H   0  0  0  0  0  0  0  0  0  0  0  0
   -6.2854    1.4751    4.7599 H   0  0  0  0  0  0  0  0  0  0  0  0
   -7.4369    2.7701    4.0872 H   0  0  0  0  0  0  0  0  0  0  0  0
   -8.4010    0.3722    4.3963 H   0  0  0  0  0  0  0  0  0  0  0  0
   -8.5592    1.2551    2.8149 H   0  0  0  0  0  0  0  0  0  0  0  0
    7.1946    3.4548   -0.9831 H   0  0  0  0  0  0  0  0  0  0  0  0
    6.0828   -2.2059   -0.1754 H   0  0  0  0  0  0  0  0  0  0  0  0
    7.0867   -2.8945    1.0884 H   0  0  0  0  0  0  0  0  0  0  0  0
    9.1554    5.0740   -0.9946 H   0  0  0  0  0  0  0  0  0  0  0  0
    9.6439    4.7154    0.7487 H   0  0  0  0  0  0  0  0  0  0  0  0
    9.4284    2.6091   -1.4666 H   0  0  0  0  0  0  0  0  0  0  0  0
    9.6941    2.2585    0.3697 H   0  0  0  0  0  0  0  0  0  0  0  0
    7.7249   -0.6166   -0.6798 H   0  0  0  0  0  0  0  0  0  0  0  0
    8.1717   -0.2796    1.0309 H   0  0  0  0  0  0  0  0  0  0  0  0
    8.7842   -1.7354    0.2399 H   0  0  0  0  0  0  0  0  0  0  0  0
   -5.7517    3.1993   -3.1162 H   0  0  0  0  0  0  0  0  0  0  0  0
   -8.1734   -0.9873   -3.0127 H   0  0  0  0  0  0  0  0  0  0  0  0
   -8.3411    0.5298   -4.9282 H   0  0  0  0  0  0  0  0  0  0  0  0
  1 21  2  0
  2 22  2  0
  3 31  2  0
  4 35  2  0
  5 43  2  0
  6 45  2  0
  7 16  1  0
  7 19  1  0
  7 22  1  0
  8 21  1  0
 25  8  1  0
 23  9  1  0
  9 31  1  0
 30 10  1  0
 10 45  1  0
 11 39  1  0
 11 43  1  0
 12 46  2  0
 12 48  1  0
 13 47  2  0
 13 49  1  0
 14 15  1  0
 14 16  1  0
 14 17  1  0
 15 18  1  0
 15 19  1  0
 16 21  1  0
 17 20  1  0
 18 20  1  0
 22 23  1  0
 23 24  1  0
 24 26  1  0
 24 27  1  0
 24 28  1  0
 25 32  1  0
 25 35  1  0
 29 30  1  0
 29 33  1  0
 29 34  1  0
 30 31  1  0
 32 40  1  0
 33 36  1  0
 34 37  1  0
 35 43  1  0
 36 38  1  0
 37 38  1  0
 39 41  1  0
 39 42  1  0
 40 44  1  0
 41 42  1  0
 45 46  1  0
 46 47  1  0
 48 49  2  0
  8 50  1  0
  9 51  1  0
 10 52  1  0
 11 53  1  0
 14 54  1  1
 15 55  1  6
 16 56  1  6
 17 57  1  0
 17 58  1  0
 18 59  1  0
 18 60  1  0
 19 61  1  0
 19 62  1  0
 20 63  1  0
 20 64  1  0
 23 65  1  1
 25 66  1  1
 26 67  1  0
 26 68  1  0
 26 69  1  0
 27 70  1  0
 27 71  1  0
 27 72  1  0
 28 73  1  0
 28 74  1  0
 28 75  1  0
 29 76  1  0
 30 77  1  1
 32 78  1  0
 32 79  1  0
 33 80  1  0
 33 81  1  0
 34 82  1  0
 34 83  1  0
 36 84  1  0
 36 85  1  0
 37 86  1  0
 37 87  1  0
 38 88  1  0
 38 89  1  0
 39 90  1  0
 40 91  1  0
 40 92  1  0
 41 93  1  0
 41 94  1  0
 42 95  1  0
 42 96  1  0
 44 97  1  0
 44 98  1  0
 44 99  1  0
 47100  1  0
 48101  1  0
 49102  1  0
M  END

