175427090
     RDKit          3D

 16 16  0  0  0  0  0  0  0  0999 V2000
   -2.5693   -0.1538    0.9709 O   0  0  0  0  0  0  0  0  0  0  0  0
   -0.5230    0.1757   -0.1241 C   0  0  0  0  0  0  0  0  0  0  0  0
   -1.9993    0.3344   -0.2297 C   0  0  0  0  0  0  0  0  0  0  0  0
    0.0729   -0.9968   -0.5621 C   0  0  0  0  0  0  0  0  0  0  0  0
    0.2956    1.1642    0.4011 C   0  0  0  0  0  0  0  0  0  0  0  0
    1.4401   -1.1727   -0.4769 C   0  0  0  0  0  0  0  0  0  0  0  0
    1.6622    1.0048    0.4935 C   0  0  0  0  0  0  0  0  0  0  0  0
    2.2412   -0.1621    0.0559 C   0  0  0  0  0  0  0  0  0  0  0  0
   -2.7310   -1.1331    0.9096 H   0  0  0  0  0  0  0  0  0  0  0  0
   -2.2647    1.4046   -0.3154 H   0  0  0  0  0  0  0  0  0  0  0  0
   -2.3831   -0.1952   -1.1113 H   0  0  0  0  0  0  0  0  0  0  0  0
   -0.5730   -1.7799   -0.9780 H   0  0  0  0  0  0  0  0  0  0  0  0
   -0.2010    2.0728    0.7365 H   0  0  0  0  0  0  0  0  0  0  0  0
    1.9177   -2.0844   -0.8158 H   0  0  0  0  0  0  0  0  0  0  0  0
    2.2925    1.7945    0.9103 H   0  0  0  0  0  0  0  0  0  0  0  0
    3.3223   -0.2732    0.1354 H   0  0  0  0  0  0  0  0  0  0  0  0
  1  3  1  0
  2  3  1  0
  2  4  2  0
  2  5  1  0
  4  6  1  0
  5  7  2  0
  6  8  2  0
  7  8  1  0
  1  9  1  0
  3 10  1  0
  3 11  1  0
  4 12  1  0
  5 13  1  0
  6 14  1  0
  7 15  1  0
  8 16  1  0
M  END

