175427012
     RDKit          3D

 59 61  0  0  1  0  0  0  0  0999 V2000
    4.1253    0.5949    0.3415 O   0  0  0  0  0  0  0  0  0  0  0  0
    6.7320   -0.4119    0.2146 N   0  0  0  0  0  0  0  0  0  0  0  0
   -2.3629    0.8867    0.7653 C   0  0  0  0  0  0  0  0  0  0  0  0
   -1.5523    0.3359   -0.3330 C   0  0  0  0  0  0  0  0  0  0  0  0
   -2.3444    0.3861    2.1282 C   0  0  0  0  0  0  0  0  0  0  0  0
   -3.7493    1.2828    0.2884 C   0  0  0  0  0  0  0  0  0  0  0  0
   -0.0653    0.3971   -0.1552 C   0  0  0  0  0  0  0  0  0  0  0  0
   -2.0078   -0.8649   -1.0413 C   0  0  0  0  0  0  0  0  0  0  0  0
   -2.7267   -0.9765    2.5061 C   0  0  0  0  0  0  0  0  0  0  0  0
    0.6087   -0.3030    0.8177 C   0  0  0  0  0  0  0  0  0  0  0  0
    0.7506    1.1837   -0.9723 C   0  0  0  0  0  0  0  0  0  0  0  0
   -4.1545    2.5941    0.2318 C   0  0  0  0  0  0  0  0  0  0  0  0
   -4.6446    0.3223   -0.1056 C   0  0  0  0  0  0  0  0  0  0  0  0
   -1.8777   -2.1386   -0.5504 C   0  0  0  0  0  0  0  0  0  0  0  0
   -2.6184   -0.7902   -2.3020 C   0  0  0  0  0  0  0  0  0  0  0  0
    2.0020   -0.2157    0.9566 C   0  0  0  0  0  0  0  0  0  0  0  0
    2.1160    1.2716   -0.8394 C   0  0  0  0  0  0  0  0  0  0  0  0
    2.7600    0.5742    0.1258 C   0  0  0  0  0  0  0  0  0  0  0  0
   -5.4018    3.0148   -0.1945 C   0  0  0  0  0  0  0  0  0  0  0  0
   -5.9026    0.6871   -0.5399 C   0  0  0  0  0  0  0  0  0  0  0  0
   -2.3152   -3.2773   -1.2418 C   0  0  0  0  0  0  0  0  0  0  0  0
   -3.0562   -1.8706   -3.0048 C   0  0  0  0  0  0  0  0  0  0  0  0
   -6.2642    2.0131   -0.5794 C   0  0  0  0  0  0  0  0  0  0  0  0
   -2.8985   -3.1287   -2.4595 C   0  0  0  0  0  0  0  0  0  0  0  0
    5.0758    1.3147   -0.3703 C   0  0  0  0  0  0  0  0  0  0  0  0
    6.4297    0.9850    0.2743 C   0  0  0  0  0  0  0  0  0  0  0  0
    5.8979   -1.2492    1.0186 C   0  0  0  0  0  0  0  0  0  0  0  0
    6.9455   -0.8578   -1.1267 C   0  0  0  0  0  0  0  0  0  0  0  0
   -1.8924    1.9628    0.8997 H   0  0  0  0  0  0  0  0  0  0  0  0
   -1.6918    1.1909   -1.1576 H   0  0  0  0  0  0  0  0  0  0  0  0
   -2.9816    1.0792    2.8068 H   0  0  0  0  0  0  0  0  0  0  0  0
   -1.3224    0.5849    2.5706 H   0  0  0  0  0  0  0  0  0  0  0  0
   -3.1961   -1.0298    3.5394 H   0  0  0  0  0  0  0  0  0  0  0  0
   -3.3570   -1.5429    1.7908 H   0  0  0  0  0  0  0  0  0  0  0  0
   -1.8200   -1.6045    2.6288 H   0  0  0  0  0  0  0  0  0  0  0  0
    0.0637   -0.9415    1.4898 H   0  0  0  0  0  0  0  0  0  0  0  0
    0.2624    1.7485   -1.7496 H   0  0  0  0  0  0  0  0  0  0  0  0
   -3.4675    3.4028    0.5394 H   0  0  0  0  0  0  0  0  0  0  0  0
   -4.4226   -0.7396   -0.0997 H   0  0  0  0  0  0  0  0  0  0  0  0
   -1.4248   -2.3635    0.3979 H   0  0  0  0  0  0  0  0  0  0  0  0
   -2.7634    0.1872   -2.7698 H   0  0  0  0  0  0  0  0  0  0  0  0
    2.4437   -0.8092    1.7597 H   0  0  0  0  0  0  0  0  0  0  0  0
    2.6876    1.9021   -1.5086 H   0  0  0  0  0  0  0  0  0  0  0  0
   -5.6729    4.0716   -0.2200 H   0  0  0  0  0  0  0  0  0  0  0  0
   -6.6228   -0.0929   -0.8578 H   0  0  0  0  0  0  0  0  0  0  0  0
   -2.1996   -4.2707   -0.8305 H   0  0  0  0  0  0  0  0  0  0  0  0
   -3.5231   -1.7737   -3.9756 H   0  0  0  0  0  0  0  0  0  0  0  0
   -7.2632    2.2818   -0.9245 H   0  0  0  0  0  0  0  0  0  0  0  0
   -3.2516   -3.9738   -3.0301 H   0  0  0  0  0  0  0  0  0  0  0  0
    4.9395    2.4064   -0.2040 H   0  0  0  0  0  0  0  0  0  0  0  0
    5.0729    1.0699   -1.4315 H   0  0  0  0  0  0  0  0  0  0  0  0
    7.2501    1.5224   -0.2600 H   0  0  0  0  0  0  0  0  0  0  0  0
    6.4546    1.3149    1.3199 H   0  0  0  0  0  0  0  0  0  0  0  0
    6.5638   -2.0263    1.4889 H   0  0  0  0  0  0  0  0  0  0  0  0
    5.1140   -1.7910    0.4157 H   0  0  0  0  0  0  0  0  0  0  0  0
    5.4526   -0.6348    1.8222 H   0  0  0  0  0  0  0  0  0  0  0  0
    7.9441   -1.3553   -1.1748 H   0  0  0  0  0  0  0  0  0  0  0  0
    6.9515    0.0336   -1.7868 H   0  0  0  0  0  0  0  0  0  0  0  0
    6.1711   -1.5694   -1.4313 H   0  0  0  0  0  0  0  0  0  0  0  0
  1 18  1  0
  1 25  1  0
  2 26  1  0
  2 27  1  0
  2 28  1  0
  3  4  1  0
  3  5  1  0
  3  6  1  0
  4  7  1  0
  4  8  1  0
  5  9  1  0
  6 12  2  0
  6 13  1  0
  7 10  2  0
  7 11  1  0
  8 14  2  0
  8 15  1  0
 10 16  1  0
 11 17  2  0
 12 19  1  0
 13 20  2  0
 14 21  1  0
 15 22  2  0
 16 18  2  0
 17 18  1  0
 19 23  2  0
 20 23  1  0
 21 24  2  0
 22 24  1  0
 25 26  1  0
  3 29  1  0
  4 30  1  0
  5 31  1  0
  5 32  1  0
  9 33  1  0
  9 34  1  0
  9 35  1  0
 10 36  1  0
 11 37  1  0
 12 38  1  0
 13 39  1  0
 14 40  1  0
 15 41  1  0
 16 42  1  0
 17 43  1  0
 19 44  1  0
 20 45  1  0
 21 46  1  0
 22 47  1  0
 23 48  1  0
 24 49  1  0
 25 50  1  0
 25 51  1  0
 26 52  1  0
 26 53  1  0
 27 54  1  0
 27 55  1  0
 27 56  1  0
 28 57  1  0
 28 58  1  0
 28 59  1  0
M  END

