175426976
     RDKit          3D

 65 67  0  0  0  0  0  0  0  0999 V2000
    8.3292    1.2209   -0.0700 C   0  0  0  0  0  0  0  0  0  0  0  0
    7.6124    0.1793    0.7615 C   0  0  0  0  0  0  0  0  0  0  0  0
    7.3312    0.7391    2.1240 C   0  0  0  0  0  0  0  0  0  0  0  0
    6.3669   -0.3333    0.0839 C   0  0  0  0  0  0  0  0  0  0  0  0
    5.4413    0.7151   -0.1583 O   0  0  0  0  0  0  0  0  0  0  0  0
    4.2258    0.5275   -0.7617 C   0  0  0  0  0  0  0  0  0  0  0  0
    3.7349   -0.6752   -1.2111 C   0  0  0  0  0  0  0  0  0  0  0  0
    2.4877   -0.7665   -1.8118 C   0  0  0  0  0  0  0  0  0  0  0  0
    1.7115    0.3606   -1.9694 C   0  0  0  0  0  0  0  0  0  0  0  0
    0.3509    0.2832   -2.6154 C   0  0  0  0  0  0  0  0  0  0  0  0
   -0.7038    0.3421   -1.6031 N   0  0  0  0  0  0  0  0  0  0  0  0
   -1.0410   -0.7430   -0.7877 C   0  0  0  0  0  0  0  0  0  0  0  0
   -0.3496   -1.8048   -0.9942 O   0  0  0  0  0  0  0  0  0  0  0  0
   -2.0320   -0.7524    0.1919 N   0  0  0  0  0  0  0  0  0  0  0  0
   -2.1963   -2.0397    0.9163 C   0  0  0  0  0  0  0  0  0  0  0  0
   -3.2171   -2.8324    0.2003 C   0  0  0  0  0  0  0  0  0  0  0  0
   -4.5756   -2.6670    0.4105 C   0  0  0  0  0  0  0  0  0  0  0  0
   -5.5342   -3.4253   -0.2639 C   0  0  0  0  0  0  0  0  0  0  0  0
   -5.1402   -4.3800   -1.1771 C   0  0  0  0  0  0  0  0  0  0  0  0
   -6.0389   -5.1399   -1.8555 F   0  0  0  0  0  0  0  0  0  0  0  0
   -3.7994   -4.5658   -1.4053 C   0  0  0  0  0  0  0  0  0  0  0  0
   -2.8584   -3.7940   -0.7175 C   0  0  0  0  0  0  0  0  0  0  0  0
   -2.9071    0.2954    0.5987 C   0  0  0  0  0  0  0  0  0  0  0  0
   -3.8839    0.7987   -0.4078 C   0  0  0  0  0  0  0  0  0  0  0  0
   -4.9551    1.5771    0.3260 C   0  0  0  0  0  0  0  0  0  0  0  0
   -4.4908    2.4672    1.3001 N   0  0  0  0  0  0  0  0  0  0  0  0
   -4.9235    3.8151    1.2287 C   0  0  0  0  0  0  0  0  0  0  0  0
   -3.3228    2.1986    2.0279 C   0  0  0  0  0  0  0  0  0  0  0  0
   -2.2338    1.4992    1.2216 C   0  0  0  0  0  0  0  0  0  0  0  0
    2.1753    1.5842   -1.5290 C   0  0  0  0  0  0  0  0  0  0  0  0
    3.4177    1.6297   -0.9390 C   0  0  0  0  0  0  0  0  0  0  0  0
    8.0861    1.0941   -1.1307 H   0  0  0  0  0  0  0  0  0  0  0  0
    9.4182    1.1293    0.1190 H   0  0  0  0  0  0  0  0  0  0  0  0
    8.0452    2.2579    0.2631 H   0  0  0  0  0  0  0  0  0  0  0  0
    8.3108   -0.6970    0.8430 H   0  0  0  0  0  0  0  0  0  0  0  0
    6.6380    1.6096    1.9822 H   0  0  0  0  0  0  0  0  0  0  0  0
    6.8751   -0.0519    2.7522 H   0  0  0  0  0  0  0  0  0  0  0  0
    8.2623    1.0764    2.5856 H   0  0  0  0  0  0  0  0  0  0  0  0
    5.8875   -1.0587    0.7433 H   0  0  0  0  0  0  0  0  0  0  0  0
    6.6773   -0.8401   -0.8553 H   0  0  0  0  0  0  0  0  0  0  0  0
    4.3513   -1.5532   -1.0827 H   0  0  0  0  0  0  0  0  0  0  0  0
    2.1159   -1.7347   -2.1663 H   0  0  0  0  0  0  0  0  0  0  0  0
    0.2658   -0.7197   -3.1153 H   0  0  0  0  0  0  0  0  0  0  0  0
    0.2465    1.0469   -3.3849 H   0  0  0  0  0  0  0  0  0  0  0  0
   -1.1836    1.2463   -1.5295 H   0  0  0  0  0  0  0  0  0  0  0  0
   -1.2152   -2.5627    0.9606 H   0  0  0  0  0  0  0  0  0  0  0  0
   -2.5658   -1.7714    1.9222 H   0  0  0  0  0  0  0  0  0  0  0  0
   -4.9668   -1.9496    1.1073 H   0  0  0  0  0  0  0  0  0  0  0  0
   -6.5952   -3.2910   -0.0950 H   0  0  0  0  0  0  0  0  0  0  0  0
   -3.4970   -5.3157   -2.1225 H   0  0  0  0  0  0  0  0  0  0  0  0
   -1.8335   -4.0345   -0.9724 H   0  0  0  0  0  0  0  0  0  0  0  0
   -3.5749   -0.0934    1.4545 H   0  0  0  0  0  0  0  0  0  0  0  0
   -3.4652    1.3511   -1.2507 H   0  0  0  0  0  0  0  0  0  0  0  0
   -4.4096   -0.0862   -0.8683 H   0  0  0  0  0  0  0  0  0  0  0  0
   -5.6549    0.8377    0.7657 H   0  0  0  0  0  0  0  0  0  0  0  0
   -5.5400    2.1247   -0.4610 H   0  0  0  0  0  0  0  0  0  0  0  0
   -5.5236    4.0419    2.1595 H   0  0  0  0  0  0  0  0  0  0  0  0
   -5.5815    3.9618    0.3671 H   0  0  0  0  0  0  0  0  0  0  0  0
   -4.0658    4.5161    1.2662 H   0  0  0  0  0  0  0  0  0  0  0  0
   -2.9326    3.1349    2.4744 H   0  0  0  0  0  0  0  0  0  0  0  0
   -3.5460    1.5168    2.8901 H   0  0  0  0  0  0  0  0  0  0  0  0
   -1.4212    1.2188    1.9188 H   0  0  0  0  0  0  0  0  0  0  0  0
   -1.9293    2.2000    0.4441 H   0  0  0  0  0  0  0  0  0  0  0  0
    1.5809    2.4769   -1.6440 H   0  0  0  0  0  0  0  0  0  0  0  0
    3.7595    2.6048   -0.6012 H   0  0  0  0  0  0  0  0  0  0  0  0
  1  2  1  0
  2  3  1  0
  2  4  1  0
  4  5  1  0
  5  6  1  0
  6  7  2  0
  7  8  1  0
  8  9  2  0
  9 10  1  0
 10 11  1  0
 11 12  1  0
 12 13  2  0
 12 14  1  0
 14 15  1  0
 15 16  1  0
 16 17  2  0
 17 18  1  0
 18 19  2  0
 19 20  1  0
 19 21  1  0
 21 22  2  0
 16 22  1  0
 14 23  1  0
 23 24  1  0
 24 25  1  0
 25 26  1  0
 26 27  1  0
 26 28  1  0
 28 29  1  0
 23 29  1  0
  9 30  1  0
 30 31  2  0
  6 31  1  0
  1 32  1  0
  1 33  1  0
  1 34  1  0
  2 35  1  0
  3 36  1  0
  3 37  1  0
  3 38  1  0
  4 39  1  0
  4 40  1  0
  7 41  1  0
  8 42  1  0
 10 43  1  0
 10 44  1  0
 11 45  1  0
 15 46  1  0
 15 47  1  0
 17 48  1  0
 18 49  1  0
 21 50  1  0
 22 51  1  0
 23 52  1  0
 24 53  1  0
 24 54  1  0
 25 55  1  0
 25 56  1  0
 27 57  1  0
 27 58  1  0
 27 59  1  0
 28 60  1  0
 28 61  1  0
 29 62  1  0
 29 63  1  0
 30 64  1  0
 31 65  1  0
M  END

