175427014
     RDKit          3D

 43 44  0  0  1  0  0  0  0  0999 V2000
   -2.1371    2.0218   -2.2328 O   0  0  0  0  0  0  0  0  0  0  0  0
    1.3473   -0.8441   -0.6147 O   0  0  0  0  0  0  0  0  0  0  0  0
   -0.0738    2.9202   -2.0399 O   0  0  0  0  0  0  0  0  0  0  0  0
    6.7832   -2.4272    1.6330 O   0  0  0  0  0  0  0  0  0  0  0  0
    6.3520   -2.1080   -0.5924 O   0  0  0  0  0  0  0  0  0  0  0  0
    0.7131    1.2666    0.0155 N   0  0  0  0  0  0  0  0  0  0  0  0
   -5.1173    1.4001   -0.5775 N   0  0  0  0  0  0  0  0  0  0  0  0
    5.1331   -0.3699    2.2969 N   0  0  0  0  0  0  0  0  0  0  0  0
   -1.6278    1.2036    0.5890 C   0  0  0  0  0  0  0  0  0  0  0  0
   -0.6180    1.1149   -0.5346 C   0  0  1  0  0  0  0  0  0  0  0  0
   -3.0187    1.0537    0.0900 C   0  0  0  0  0  0  0  0  0  0  0  0
   -3.5985   -0.1479   -0.2887 C   0  0  0  0  0  0  0  0  0  0  0  0
   -4.9074    0.0703   -0.7047 C   0  0  0  0  0  0  0  0  0  0  0  0
    3.0443    0.3758    0.5063 C   0  0  0  0  0  0  0  0  0  0  0  0
    3.8706   -0.8819    0.2926 C   0  0  0  0  0  0  0  0  0  0  0  0
   -4.0067    1.9962   -0.1075 C   0  0  0  0  0  0  0  0  0  0  0  0
    1.6924    0.2452   -0.0428 C   0  0  0  0  0  0  0  0  0  0  0  0
    5.2547   -0.6439    0.8965 C   0  0  2  0  0  0  0  0  0  0  0  0
   -3.1174   -1.4364   -0.3169 C   0  0  0  0  0  0  0  0  0  0  0  0
   -0.8941    2.0629   -1.6203 C   0  0  0  0  0  0  0  0  0  0  0  0
   -5.7205   -0.9561   -1.1374 C   0  0  0  0  0  0  0  0  0  0  0  0
   -3.9099   -2.4802   -0.7451 C   0  0  0  0  0  0  0  0  0  0  0  0
   -5.2036   -2.2339   -1.1517 C   0  0  0  0  0  0  0  0  0  0  0  0
    6.1621   -1.7696    0.5985 C   0  0  0  0  0  0  0  0  0  0  0  0
   -2.4729    2.7570   -2.8093 H   0  0  0  0  0  0  0  0  0  0  0  0
    7.7001   -2.0835    1.9251 H   0  0  0  0  0  0  0  0  0  0  0  0
    1.0113    2.1691    0.4937 H   0  0  0  0  0  0  0  0  0  0  0  0
   -6.0158    1.8674   -0.8158 H   0  0  0  0  0  0  0  0  0  0  0  0
    4.3315   -0.9470    2.6581 H   0  0  0  0  0  0  0  0  0  0  0  0
    4.9331    0.6451    2.4618 H   0  0  0  0  0  0  0  0  0  0  0  0
   -1.5815    2.1998    1.0978 H   0  0  0  0  0  0  0  0  0  0  0  0
   -1.3615    0.4550    1.3620 H   0  0  0  0  0  0  0  0  0  0  0  0
   -0.6752    0.0934   -0.9670 H   0  0  0  0  0  0  0  0  0  0  0  0
    3.0465    0.5412    1.6185 H   0  0  0  0  0  0  0  0  0  0  0  0
    3.5444    1.2166   -0.0140 H   0  0  0  0  0  0  0  0  0  0  0  0
    3.3896   -1.7670    0.7168 H   0  0  0  0  0  0  0  0  0  0  0  0
    4.0319   -0.9605   -0.8102 H   0  0  0  0  0  0  0  0  0  0  0  0
   -3.8931    3.0550    0.0899 H   0  0  0  0  0  0  0  0  0  0  0  0
    5.6929    0.2583    0.3902 H   0  0  0  0  0  0  0  0  0  0  0  0
   -2.0892   -1.5850    0.0132 H   0  0  0  0  0  0  0  0  0  0  0  0
   -6.7361   -0.7849   -1.4597 H   0  0  0  0  0  0  0  0  0  0  0  0
   -3.4636   -3.4679   -0.7397 H   0  0  0  0  0  0  0  0  0  0  0  0
   -5.7942   -3.0943   -1.4833 H   0  0  0  0  0  0  0  0  0  0  0  0
  1 20  1  0
  2 17  2  0
  3 20  2  0
  4 24  1  0
  5 24  2  0
 10  6  1  0
  6 17  1  0
  7 13  1  0
  7 16  1  0
 18  8  1  0
  9 10  1  0
  9 11  1  0
 10 20  1  0
 11 12  1  0
 11 16  2  0
 12 13  2  0
 12 19  1  0
 13 21  1  0
 14 15  1  0
 14 17  1  0
 15 18  1  0
 18 24  1  0
 19 22  2  0
 21 23  2  0
 22 23  1  0
  1 25  1  0
  4 26  1  0
  6 27  1  0
  7 28  1  0
  8 29  1  0
  8 30  1  0
  9 31  1  0
  9 32  1  0
 10 33  1  6
 14 34  1  0
 14 35  1  0
 15 36  1  0
 15 37  1  0
 16 38  1  0
 18 39  1  6
 19 40  1  0
 21 41  1  0
 22 42  1  0
 23 43  1  0
M  END

