175427027
     RDKit          3D

 43 45  0  0  0  0  0  0  0  0999 V2000
    6.0729   -0.3736   -0.6543 C   0  0  0  0  0  0  0  0  0  0  0  0
    1.2687    3.7234    0.2749 C   0  0  0  0  0  0  0  0  0  0  0  0
   -5.5218    1.0275   -0.2825 C   0  0  0  0  0  0  0  0  0  0  0  0
   -0.9165   -3.1041    1.3572 C   0  0  0  0  0  0  0  0  0  0  0  0
   -0.3107   -1.7267    1.3566 C   0  0  0  0  0  0  0  0  0  0  0  0
   -4.6494   -0.0272   -0.1876 C   0  0  0  0  0  0  0  0  0  0  0  0
    1.9445   -0.9560   -0.7155 C   0  0  0  0  0  0  0  0  0  0  0  0
    3.3115   -0.7438   -0.6911 C   0  0  0  0  0  0  0  0  0  0  0  0
   -5.0650    2.3128   -0.1202 C   0  0  0  0  0  0  0  0  0  0  0  0
   -1.8640   -3.3160    0.2340 C   0  0  0  0  0  0  0  0  0  0  0  0
   -0.3341   -0.0726   -0.4636 C   0  0  0  0  0  0  0  0  0  0  0  0
    2.9832    1.5933   -0.1965 C   0  0  0  0  0  0  0  0  0  0  0  0
   -2.8820    1.4605    0.2282 C   0  0  0  0  0  0  0  0  0  0  0  0
    1.1137    0.1228   -0.4761 C   0  0  0  0  0  0  0  0  0  0  0  0
   -0.9801   -0.8956    0.3454 C   0  0  0  0  0  0  0  0  0  0  0  0
   -3.2828    0.1600    0.0738 C   0  0  0  0  0  0  0  0  0  0  0  0
    3.8036    0.5097   -0.4357 C   0  0  0  0  0  0  0  0  0  0  0  0
    1.6208    1.4039   -0.2156 C   0  0  0  0  0  0  0  0  0  0  0  0
   -2.4381   -1.0045    0.2035 C   0  0  0  0  0  0  0  0  0  0  0  0
   -3.7769    2.4778    0.1262 N   0  0  0  0  0  0  0  0  0  0  0  0
   -2.8798   -2.2406    0.1482 N   0  0  0  0  0  0  0  0  0  0  0  0
    5.1751    0.7153   -0.4128 O   0  0  0  0  0  0  0  0  0  0  0  0
    0.7313    2.4441    0.0153 O   0  0  0  0  0  0  0  0  0  0  0  0
    5.9872   -0.6209   -1.7138 H   0  0  0  0  0  0  0  0  0  0  0  0
    7.1065    0.0144   -0.4818 H   0  0  0  0  0  0  0  0  0  0  0  0
    5.8478   -1.2138    0.0265 H   0  0  0  0  0  0  0  0  0  0  0  0
    0.4430    4.4541    0.4232 H   0  0  0  0  0  0  0  0  0  0  0  0
    1.9271    4.0598   -0.5572 H   0  0  0  0  0  0  0  0  0  0  0  0
    1.8862    3.7205    1.2108 H   0  0  0  0  0  0  0  0  0  0  0  0
   -6.5828    0.8128   -0.4894 H   0  0  0  0  0  0  0  0  0  0  0  0
   -0.1022   -3.8808    1.2399 H   0  0  0  0  0  0  0  0  0  0  0  0
   -1.3906   -3.3194    2.3502 H   0  0  0  0  0  0  0  0  0  0  0  0
    0.7515   -1.8163    1.1664 H   0  0  0  0  0  0  0  0  0  0  0  0
   -0.4887   -1.2340    2.3645 H   0  0  0  0  0  0  0  0  0  0  0  0
   -5.0064   -1.0395   -0.3153 H   0  0  0  0  0  0  0  0  0  0  0  0
    1.5528   -1.9649   -0.9461 H   0  0  0  0  0  0  0  0  0  0  0  0
    3.9735   -1.5947   -0.8794 H   0  0  0  0  0  0  0  0  0  0  0  0
   -5.7832    3.1262   -0.2027 H   0  0  0  0  0  0  0  0  0  0  0  0
   -1.3986   -3.5181   -0.7304 H   0  0  0  0  0  0  0  0  0  0  0  0
   -2.4780   -4.2313    0.4870 H   0  0  0  0  0  0  0  0  0  0  0  0
   -0.9510    0.4921   -1.1853 H   0  0  0  0  0  0  0  0  0  0  0  0
    3.4211    2.5620   -0.0007 H   0  0  0  0  0  0  0  0  0  0  0  0
   -1.8393    1.7014    0.4656 H   0  0  0  0  0  0  0  0  0  0  0  0
  4  5  1  0
  3  6  2  0
  7  8  2  0
  3  9  1  0
  4 10  1  0
  7 14  1  0
 11 14  1  0
  5 15  1  0
 11 15  2  0
  6 16  1  0
 13 16  2  0
  8 17  1  0
 12 17  2  0
 12 18  1  0
 14 18  2  0
 15 19  1  0
 16 19  1  0
  9 20  2  0
 13 20  1  0
 10 21  1  0
 19 21  2  0
  1 22  1  0
 17 22  1  0
  2 23  1  0
 18 23  1  0
  1 24  1  0
  1 25  1  0
  1 26  1  0
  2 27  1  0
  2 28  1  0
  2 29  1  0
  3 30  1  0
  4 31  1  0
  4 32  1  0
  5 33  1  0
  5 34  1  0
  6 35  1  0
  7 36  1  0
  8 37  1  0
  9 38  1  0
 10 39  1  0
 10 40  1  0
 11 41  1  0
 12 42  1  0
 13 43  1  0
M  END

