175427001
     RDKit          3D

 92 93  0  0  1  0  0  0  0  0999 V2000
    2.4389    0.6535    1.1896 O   0  0  0  0  0  0  0  0  0  0  0  0
    5.8274   -0.1956   -0.3325 O   0  0  0  0  0  0  0  0  0  0  0  0
    1.3420   -1.3851   -0.3023 O   0  0  0  0  0  0  0  0  0  0  0  0
   -2.1481   -3.0816   -2.9810 O   0  0  0  0  0  0  0  0  0  0  0  0
   -9.6154    0.0135   -1.4479 O   0  0  0  0  0  0  0  0  0  0  0  0
   -2.6610    0.2957   -0.7321 O   0  0  0  0  0  0  0  0  0  0  0  0
    9.0974   -2.0431   -4.2256 O   0  0  0  0  0  0  0  0  0  0  0  0
   -5.0318   -0.5100   -1.4489 O   0  0  0  0  0  0  0  0  0  0  0  0
   -8.4454    0.2611   -3.3470 O   0  0  0  0  0  0  0  0  0  0  0  0
  -11.6934    1.3867    3.3249 O   0  0  0  0  0  0  0  0  0  0  0  0
    5.0875    0.8141    1.6066 N   0  0  0  0  0  0  0  0  0  0  0  0
    2.0856   -1.3648    2.1823 N   0  0  0  0  0  0  0  0  0  0  0  0
    6.3063    3.1287    0.8595 N   0  0  0  0  0  0  0  0  0  0  0  0
   -0.9229   -1.4453    0.0362 N   0  0  0  0  0  0  0  0  0  0  0  0
   -6.2161    1.2614   -2.2999 N   0  0  0  0  0  0  0  0  0  0  0  0
   -2.8846   -0.3159   -2.9262 N   0  0  0  0  0  0  0  0  0  0  0  0
    4.8020   -0.9021    3.3796 C   0  0  0  0  0  0  0  0  0  0  0  0
    6.2189   -1.2748    3.6147 C   0  0  0  0  0  0  0  0  0  0  0  0
    4.4508   -0.3737    2.0449 C   0  0  1  0  0  0  0  0  0  0  0  0
    7.2663   -0.2467    3.4966 C   0  0  0  0  0  0  0  0  0  0  0  0
    6.5968   -2.3988    2.6207 C   0  0  0  0  0  0  0  0  0  0  0  0
    2.9629   -0.3443    1.7921 C   0  0  0  0  0  0  0  0  0  0  0  0
    6.4795    2.0528   -0.1270 C   0  0  2  0  0  0  0  0  0  0  0  0
    5.7867    0.8453    0.3749 C   0  0  0  0  0  0  0  0  0  0  0  0
    7.9541    1.8885   -0.3154 C   0  0  0  0  0  0  0  0  0  0  0  0
    0.6677   -1.3810    1.9528 C   0  0  0  0  0  0  0  0  0  0  0  0
    8.2386    0.8426   -1.2975 C   0  0  0  0  0  0  0  0  0  0  0  0
    0.3882   -1.4019    0.5107 C   0  0  0  0  0  0  0  0  0  0  0  0
   -1.2643   -1.4870   -1.3713 C   0  0  2  0  0  0  0  0  0  0  0  0
   -7.2955    0.9695   -1.3700 C   0  0  1  0  0  0  0  0  0  0  0  0
    8.2865    1.1796   -2.6391 C   0  0  0  0  0  0  0  0  0  0  0  0
    8.4773   -0.4538   -0.9484 C   0  0  0  0  0  0  0  0  0  0  0  0
   -7.6352    2.1640   -0.5424 C   0  0  0  0  0  0  0  0  0  0  0  0
   -2.2854   -0.4764   -1.6568 C   0  0  0  0  0  0  0  0  0  0  0  0
   -1.7859   -2.9051   -1.6678 C   0  0  0  0  0  0  0  0  0  0  0  0
   -8.7121    1.9722    0.4358 C   0  0  0  0  0  0  0  0  0  0  0  0
    8.5676    0.2356   -3.6007 C   0  0  0  0  0  0  0  0  0  0  0  0
    8.7649   -1.4305   -1.9089 C   0  0  0  0  0  0  0  0  0  0  0  0
   -3.8971    0.6838   -3.1888 C   0  0  0  0  0  0  0  0  0  0  0  0
   -5.0615    0.4448   -2.2759 C   0  0  0  0  0  0  0  0  0  0  0  0
    8.8090   -1.0794   -3.2352 C   0  0  0  0  0  0  0  0  0  0  0  0
   -8.4636    0.4036   -2.1116 C   0  0  0  0  0  0  0  0  0  0  0  0
  -10.0383    2.2278    0.1579 C   0  0  0  0  0  0  0  0  0  0  0  0
   -8.4125    1.5110    1.7196 C   0  0  0  0  0  0  0  0  0  0  0  0
  -11.0255    2.0395    1.0959 C   0  0  0  0  0  0  0  0  0  0  0  0
   -9.4119    1.3295    2.6440 C   0  0  0  0  0  0  0  0  0  0  0  0
  -10.7126    1.5819    2.3653 C   0  0  0  0  0  0  0  0  0  0  0  0
  -10.7194   -0.5240   -2.1388 C   0  0  0  0  0  0  0  0  0  0  0  0
   -2.6937   -3.9002   -3.0223 H   0  0  0  0  0  0  0  0  0  0  0  0
   10.0653   -2.1617   -4.4593 H   0  0  0  0  0  0  0  0  0  0  0  0
  -12.1319    0.4550    3.3636 H   0  0  0  0  0  0  0  0  0  0  0  0
    5.0607    1.6871    2.1615 H   0  0  0  0  0  0  0  0  0  0  0  0
    2.5338   -2.1932    2.6824 H   0  0  0  0  0  0  0  0  0  0  0  0
    7.1729    3.6940    0.9487 H   0  0  0  0  0  0  0  0  0  0  0  0
    5.4847    3.7050    0.6256 H   0  0  0  0  0  0  0  0  0  0  0  0
   -1.7120   -1.4515    0.7254 H   0  0  0  0  0  0  0  0  0  0  0  0
   -6.2873    2.0470   -2.9645 H   0  0  0  0  0  0  0  0  0  0  0  0
   -2.5874   -0.9353   -3.7014 H   0  0  0  0  0  0  0  0  0  0  0  0
    4.4645   -0.1575    4.1447 H   0  0  0  0  0  0  0  0  0  0  0  0
    4.2119   -1.8219    3.6269 H   0  0  0  0  0  0  0  0  0  0  0  0
    6.2870   -1.7655    4.6092 H   0  0  0  0  0  0  0  0  0  0  0  0
    4.7752   -1.1917    1.3035 H   0  0  0  0  0  0  0  0  0  0  0  0
    7.5540    0.0883    4.5418 H   0  0  0  0  0  0  0  0  0  0  0  0
    8.2461   -0.6744    3.1153 H   0  0  0  0  0  0  0  0  0  0  0  0
    7.0440    0.6662    2.9555 H   0  0  0  0  0  0  0  0  0  0  0  0
    5.6430   -2.9131    2.3253 H   0  0  0  0  0  0  0  0  0  0  0  0
    7.0531   -1.9687    1.7180 H   0  0  0  0  0  0  0  0  0  0  0  0
    7.2153   -3.1637    3.1257 H   0  0  0  0  0  0  0  0  0  0  0  0
    5.9698    2.3931   -1.0463 H   0  0  0  0  0  0  0  0  0  0  0  0
    8.4378    1.6920    0.6749 H   0  0  0  0  0  0  0  0  0  0  0  0
    8.4276    2.8503   -0.6582 H   0  0  0  0  0  0  0  0  0  0  0  0
    0.2600   -0.4193    2.3645 H   0  0  0  0  0  0  0  0  0  0  0  0
    0.1479   -2.1663    2.5380 H   0  0  0  0  0  0  0  0  0  0  0  0
   -0.3440   -1.4000   -1.9556 H   0  0  0  0  0  0  0  0  0  0  0  0
   -6.9576    0.1425   -0.6758 H   0  0  0  0  0  0  0  0  0  0  0  0
    8.1028    2.2105   -2.9708 H   0  0  0  0  0  0  0  0  0  0  0  0
    8.4539   -0.7572    0.1012 H   0  0  0  0  0  0  0  0  0  0  0  0
   -7.9441    3.0049   -1.2225 H   0  0  0  0  0  0  0  0  0  0  0  0
   -6.6894    2.5187   -0.0658 H   0  0  0  0  0  0  0  0  0  0  0  0
   -0.9812   -3.6074   -1.3722 H   0  0  0  0  0  0  0  0  0  0  0  0
   -2.6572   -3.0821   -0.9886 H   0  0  0  0  0  0  0  0  0  0  0  0
    8.6090    0.4748   -4.6462 H   0  0  0  0  0  0  0  0  0  0  0  0
    8.9551   -2.4612   -1.6477 H   0  0  0  0  0  0  0  0  0  0  0  0
   -4.2179    0.6355   -4.2462 H   0  0  0  0  0  0  0  0  0  0  0  0
   -3.5269    1.7186   -3.0229 H   0  0  0  0  0  0  0  0  0  0  0  0
  -10.2634    2.5947   -0.8515 H   0  0  0  0  0  0  0  0  0  0  0  0
   -7.4000    1.2994    1.9851 H   0  0  0  0  0  0  0  0  0  0  0  0
  -12.0496    2.2482    0.8482 H   0  0  0  0  0  0  0  0  0  0  0  0
   -9.1701    0.9670    3.6507 H   0  0  0  0  0  0  0  0  0  0  0  0
  -11.4538   -0.9056   -1.3856 H   0  0  0  0  0  0  0  0  0  0  0  0
  -10.4326   -1.3770   -2.7947 H   0  0  0  0  0  0  0  0  0  0  0  0
  -11.2381    0.2158   -2.7685 H   0  0  0  0  0  0  0  0  0  0  0  0
  1 22  2  0
  2 24  2  0
  3 28  2  0
  4 35  1  0
  5 42  1  0
  5 48  1  0
  6 34  2  0
  7 41  1  0
  8 40  2  0
  9 42  2  0
 10 47  1  0
 19 11  1  0
 11 24  1  0
 12 22  1  0
 12 26  1  0
 23 13  1  0
 14 28  1  0
 29 14  1  0
 30 15  1  0
 15 40  1  0
 16 34  1  0
 16 39  1  0
 17 18  1  0
 17 19  1  0
 18 20  1  0
 18 21  1  0
 19 22  1  0
 23 24  1  0
 23 25  1  0
 25 27  1  0
 26 28  1  0
 27 31  2  0
 27 32  1  0
 29 34  1  0
 29 35  1  0
 30 33  1  0
 30 42  1  0
 31 37  1  0
 32 38  2  0
 33 36  1  0
 36 43  2  0
 36 44  1  0
 37 41  2  0
 38 41  1  0
 39 40  1  0
 43 45  1  0
 44 46  2  0
 45 47  2  0
 46 47  1  0
  4 49  1  0
  7 50  1  0
 10 51  1  0
 11 52  1  0
 12 53  1  0
 13 54  1  0
 13 55  1  0
 14 56  1  0
 15 57  1  0
 16 58  1  0
 17 59  1  0
 17 60  1  0
 18 61  1  0
 19 62  1  6
 20 63  1  0
 20 64  1  0
 20 65  1  0
 21 66  1  0
 21 67  1  0
 21 68  1  0
 23 69  1  6
 25 70  1  0
 25 71  1  0
 26 72  1  0
 26 73  1  0
 29 74  1  6
 30 75  1  1
 31 76  1  0
 32 77  1  0
 33 78  1  0
 33 79  1  0
 35 80  1  0
 35 81  1  0
 37 82  1  0
 38 83  1  0
 39 84  1  0
 39 85  1  0
 43 86  1  0
 44 87  1  0
 45 88  1  0
 46 89  1  0
 48 90  1  0
 48 91  1  0
 48 92  1  0
M  END

