175426862
     RDKit          3D

 85 88  0  0  1  0  0  0  0  0999 V2000
   -1.7183    0.1130    0.9713 O   0  0  0  0  0  0  0  0  0  0  0  0
   -0.3451    0.9070   -0.6359 O   0  0  0  0  0  0  0  0  0  0  0  0
    2.8578   -0.4617    1.0286 O   0  0  0  0  0  0  0  0  0  0  0  0
    4.1434    2.3797   -0.4468 O   0  0  0  0  0  0  0  0  0  0  0  0
    6.7188   -3.0165    0.1772 O   0  0  0  0  0  0  0  0  0  0  0  0
    8.6554    0.8510   -1.7978 O   0  0  0  0  0  0  0  0  0  0  0  0
    8.7902   -1.7723   -1.0493 O   0  0  0  0  0  0  0  0  0  0  0  0
    1.7415    1.5631    0.8000 N   0  0  0  0  0  0  0  0  0  0  0  0
   -4.8380    4.8820    2.4237 N   0  0  0  0  0  0  0  0  0  0  0  0
   -7.3552   -5.0353   -1.7587 N   0  0  0  0  0  0  0  0  0  0  0  0
    0.5945    0.9563    1.5065 C   0  0  1  0  0  0  0  0  0  0  0  0
    0.1543    2.0082    2.5268 C   0  0  0  0  0  0  0  0  0  0  0  0
    1.3104    2.9311    2.8511 C   0  0  0  0  0  0  0  0  0  0  0  0
    1.6627    3.7812    1.6757 C   0  0  0  0  0  0  0  0  0  0  0  0
    1.5217    2.9143    0.4111 C   0  0  0  0  0  0  0  0  0  0  0  0
   -0.5026    0.6572    0.5899 C   0  0  0  0  0  0  0  0  0  0  0  0
   -2.7658   -0.1698    0.0613 C   0  0  0  0  0  0  0  0  0  0  0  0
    2.8812    0.7597    0.6029 C   0  0  0  0  0  0  0  0  0  0  0  0
   -3.9843    0.6520    0.3041 C   0  0  0  0  0  0  0  0  0  0  0  0
   -2.9736   -1.6403    0.0630 C   0  0  0  0  0  0  0  0  0  0  0  0
   -4.6145    0.5028    1.6323 C   0  0  0  0  0  0  0  0  0  0  0  0
   -4.0574   -2.1327   -0.8533 C   0  0  0  0  0  0  0  0  0  0  0  0
    4.0952    1.1701   -0.0367 C   0  0  0  0  0  0  0  0  0  0  0  0
   -5.8472    1.4086    1.7204 C   0  0  0  0  0  0  0  0  0  0  0  0
   -4.1117   -3.6384   -0.7090 C   0  0  0  0  0  0  0  0  0  0  0  0
    5.2828    0.3640   -0.2720 C   0  0  0  0  0  0  0  0  0  0  0  0
   -5.4952    2.8302    1.5286 C   0  0  0  0  0  0  0  0  0  0  0  0
   -5.1283   -4.2796   -1.5460 C   0  0  0  0  0  0  0  0  0  0  0  0
    6.3980    0.9412   -0.9044 C   0  0  0  0  0  0  0  0  0  0  0  0
    5.4304   -0.9553    0.0715 C   0  0  0  0  0  0  0  0  0  0  0  0
   -5.5169    3.3550    0.2490 C   0  0  0  0  0  0  0  0  0  0  0  0
   -4.8006   -4.6916   -2.8184 C   0  0  0  0  0  0  0  0  0  0  0  0
   -5.1575    3.5849    2.6225 C   0  0  0  0  0  0  0  0  0  0  0  0
   -6.3964   -4.4568   -1.0356 C   0  0  0  0  0  0  0  0  0  0  0  0
    6.5915   -1.6828   -0.1795 C   0  0  0  0  0  0  0  0  0  0  0  0
    7.5619    0.2819   -1.1776 C   0  0  0  0  0  0  0  0  0  0  0  0
    7.6394   -1.0405   -0.8039 C   0  0  0  0  0  0  0  0  0  0  0  0
   -5.1877    4.6795    0.0721 C   0  0  0  0  0  0  0  0  0  0  0  0
   -5.7917   -5.2908   -3.5684 C   0  0  0  0  0  0  0  0  0  0  0  0
   -4.8553    5.4017    1.1910 C   0  0  0  0  0  0  0  0  0  0  0  0
   -7.0374   -5.4457   -3.0201 C   0  0  0  0  0  0  0  0  0  0  0  0
    5.7290   -3.7642    0.8094 C   0  0  0  0  0  0  0  0  0  0  0  0
    8.7360    2.1708   -2.2354 C   0  0  0  0  0  0  0  0  0  0  0  0
    8.8355   -2.4610   -2.3068 C   0  0  0  0  0  0  0  0  0  0  0  0
    0.9687    0.0905    2.0825 H   0  0  0  0  0  0  0  0  0  0  0  0
   -0.7133    2.5865    2.1638 H   0  0  0  0  0  0  0  0  0  0  0  0
   -0.1433    1.4591    3.4391 H   0  0  0  0  0  0  0  0  0  0  0  0
    2.1723    2.3290    3.2042 H   0  0  0  0  0  0  0  0  0  0  0  0
    0.9453    3.6119    3.6707 H   0  0  0  0  0  0  0  0  0  0  0  0
    2.7348    4.0485    1.7451 H   0  0  0  0  0  0  0  0  0  0  0  0
    1.0312    4.6898    1.5852 H   0  0  0  0  0  0  0  0  0  0  0  0
    2.1703    3.3560   -0.3293 H   0  0  0  0  0  0  0  0  0  0  0  0
    0.4459    3.0460    0.0301 H   0  0  0  0  0  0  0  0  0  0  0  0
   -2.3806    0.1242   -0.9451 H   0  0  0  0  0  0  0  0  0  0  0  0
   -4.7451    0.4872   -0.4848 H   0  0  0  0  0  0  0  0  0  0  0  0
   -3.6729    1.7283    0.1930 H   0  0  0  0  0  0  0  0  0  0  0  0
   -2.0187   -2.1008   -0.3375 H   0  0  0  0  0  0  0  0  0  0  0  0
   -3.0525   -2.0736    1.0963 H   0  0  0  0  0  0  0  0  0  0  0  0
   -3.9326    0.8446    2.4610 H   0  0  0  0  0  0  0  0  0  0  0  0
   -4.9559   -0.4994    1.8919 H   0  0  0  0  0  0  0  0  0  0  0  0
   -5.0270   -1.6529   -0.6953 H   0  0  0  0  0  0  0  0  0  0  0  0
   -3.7359   -1.9108   -1.8903 H   0  0  0  0  0  0  0  0  0  0  0  0
   -6.5845    1.0701    0.9637 H   0  0  0  0  0  0  0  0  0  0  0  0
   -6.3477    1.2575    2.7149 H   0  0  0  0  0  0  0  0  0  0  0  0
   -4.2027   -3.9297    0.3752 H   0  0  0  0  0  0  0  0  0  0  0  0
   -3.1161   -4.0251   -1.0203 H   0  0  0  0  0  0  0  0  0  0  0  0
    6.3128    1.9760   -1.1862 H   0  0  0  0  0  0  0  0  0  0  0  0
    4.6479   -1.5008    0.5560 H   0  0  0  0  0  0  0  0  0  0  0  0
   -5.7911    2.7157   -0.5857 H   0  0  0  0  0  0  0  0  0  0  0  0
   -3.7931   -4.5474   -3.2160 H   0  0  0  0  0  0  0  0  0  0  0  0
   -5.1591    3.1212    3.5846 H   0  0  0  0  0  0  0  0  0  0  0  0
   -6.6030   -4.1089   -0.0128 H   0  0  0  0  0  0  0  0  0  0  0  0
   -5.2053    5.0924   -0.9382 H   0  0  0  0  0  0  0  0  0  0  0  0
   -5.5622   -5.6300   -4.5826 H   0  0  0  0  0  0  0  0  0  0  0  0
   -4.5956    6.4500    1.0519 H   0  0  0  0  0  0  0  0  0  0  0  0
   -7.8334   -5.9165   -3.5969 H   0  0  0  0  0  0  0  0  0  0  0  0
    6.2281   -4.6474    1.3015 H   0  0  0  0  0  0  0  0  0  0  0  0
    5.0077   -4.1680    0.0475 H   0  0  0  0  0  0  0  0  0  0  0  0
    5.1625   -3.1918    1.5852 H   0  0  0  0  0  0  0  0  0  0  0  0
    7.7250    2.4709   -2.6085 H   0  0  0  0  0  0  0  0  0  0  0  0
    8.9306    2.8004   -1.3201 H   0  0  0  0  0  0  0  0  0  0  0  0
    9.5037    2.3084   -3.0132 H   0  0  0  0  0  0  0  0  0  0  0  0
    9.8388   -2.8310   -2.5319 H   0  0  0  0  0  0  0  0  0  0  0  0
    8.4160   -1.7600   -3.0515 H   0  0  0  0  0  0  0  0  0  0  0  0
    8.0793   -3.2812   -2.2014 H   0  0  0  0  0  0  0  0  0  0  0  0
  1 16  1  0
  1 17  1  0
  2 16  2  0
  3 18  2  0
  4 23  2  0
  5 35  1  0
  5 42  1  0
  6 36  1  0
  6 43  1  0
  7 37  1  0
  7 44  1  0
  8 11  1  0
  8 15  1  0
  8 18  1  0
  9 33  2  0
  9 40  1  0
 10 34  2  0
 10 41  1  0
 11 12  1  0
 11 16  1  0
 12 13  1  0
 13 14  1  0
 14 15  1  0
 17 19  1  0
 17 20  1  0
 18 23  1  0
 19 21  1  0
 20 22  1  0
 21 24  1  0
 22 25  1  0
 23 26  1  0
 24 27  1  0
 25 28  1  0
 26 29  2  0
 26 30  1  0
 27 31  2  0
 27 33  1  0
 28 32  2  0
 28 34  1  0
 29 36  1  0
 30 35  2  0
 31 38  1  0
 32 39  1  0
 35 37  1  0
 36 37  2  0
 38 40  2  0
 39 41  2  0
 11 45  1  1
 12 46  1  0
 12 47  1  0
 13 48  1  0
 13 49  1  0
 14 50  1  0
 14 51  1  0
 15 52  1  0
 15 53  1  0
 17 54  1  0
 19 55  1  0
 19 56  1  0
 20 57  1  0
 20 58  1  0
 21 59  1  0
 21 60  1  0
 22 61  1  0
 22 62  1  0
 24 63  1  0
 24 64  1  0
 25 65  1  0
 25 66  1  0
 29 67  1  0
 30 68  1  0
 31 69  1  0
 32 70  1  0
 33 71  1  0
 34 72  1  0
 38 73  1  0
 39 74  1  0
 40 75  1  0
 41 76  1  0
 42 77  1  0
 42 78  1  0
 42 79  1  0
 43 80  1  0
 43 81  1  0
 43 82  1  0
 44 83  1  0
 44 84  1  0
 44 85  1  0
M  END

