175426990
     RDKit          3D

 11 10  0  0  0  0  0  0  0  0999 V2000
   -0.6738    0.0809   -0.6504 N   0  0  0  0  0  0  0  0  0  0  0  0
    0.5936    0.3306   -0.0747 C   0  0  0  0  0  0  0  0  0  0  0  0
    1.3904   -0.7796    0.3032 N   0  0  0  0  0  0  0  0  0  0  0  0
    1.0878    1.5015    0.1362 N   0  0  0  0  0  0  0  0  0  0  0  0
   -1.7346   -0.3104    0.1169 N   0  0  0  0  0  0  0  0  0  0  0  0
   -0.7865    0.2009   -1.6765 H   0  0  0  0  0  0  0  0  0  0  0  0
    2.2367   -0.9699   -0.3082 H   0  0  0  0  0  0  0  0  0  0  0  0
    1.1886   -1.3937    1.1245 H   0  0  0  0  0  0  0  0  0  0  0  0
    0.5563    2.3419   -0.1170 H   0  0  0  0  0  0  0  0  0  0  0  0
   -1.8649   -1.3122    0.2562 H   0  0  0  0  0  0  0  0  0  0  0  0
   -1.9936    0.3099    0.8898 H   0  0  0  0  0  0  0  0  0  0  0  0
  1  2  1  0
  2  3  1  0
  2  4  2  3
  1  5  1  0
  1  6  1  0
  3  7  1  0
  3  8  1  0
  4  9  1  0
  5 10  1  0
  5 11  1  0
M  END

