175426888
     RDKit          3D

 45 49  0  0  1  0  0  0  0  0999 V2000
    1.0504   -2.3785    0.3495 O   0  0  0  0  0  0  0  0  0  0  0  0
   -2.1320    0.8307    0.2905 N   0  0  0  0  0  0  0  0  0  0  0  0
    3.8070   -0.7152   -0.0032 N   0  0  0  0  0  0  0  0  0  0  0  0
    4.9219   -0.0365   -1.7762 N   0  0  0  0  0  0  0  0  0  0  0  0
   -0.8522    0.6216    0.6229 C   0  0  0  0  0  0  0  0  0  0  0  0
    1.7677   -0.3019    1.3377 C   0  0  1  0  0  0  0  0  0  0  0  0
   -0.5379   -0.6955    0.4043 C   0  0  0  0  0  0  0  0  0  0  0  0
    0.1555    1.5632    1.1454 C   0  0  0  0  0  0  0  0  0  0  0  0
   -2.6687   -0.3203   -0.1428 C   0  0  0  0  0  0  0  0  0  0  0  0
    1.5641    1.1129    0.8664 C   0  0  0  0  0  0  0  0  0  0  0  0
   -1.6948   -1.2860   -0.0811 C   0  0  0  0  0  0  0  0  0  0  0  0
   -2.9860    1.9895    0.3118 C   0  0  0  0  0  0  0  0  0  0  0  0
    0.7911   -1.1838    0.6867 C   0  0  0  0  0  0  0  0  0  0  0  0
   -3.9397   -0.5182   -0.5692 C   0  0  0  0  0  0  0  0  0  0  0  0
   -4.4453    1.6241    0.4278 C   0  0  0  0  0  0  0  0  0  0  0  0
   -4.8838    0.6153   -0.5839 C   0  0  0  0  0  0  0  0  0  0  0  0
    3.1866   -0.7384    1.2751 C   0  0  0  0  0  0  0  0  0  0  0  0
   -2.0191   -2.5467   -0.4769 C   0  0  0  0  0  0  0  0  0  0  0  0
   -4.2779   -1.7956   -0.9731 C   0  0  0  0  0  0  0  0  0  0  0  0
   -3.3214   -2.8015   -0.9261 C   0  0  0  0  0  0  0  0  0  0  0  0
    4.4627    0.3160   -0.5556 C   0  0  0  0  0  0  0  0  0  0  0  0
    3.8590   -1.7187   -0.8881 C   0  0  0  0  0  0  0  0  0  0  0  0
    4.5639   -1.3055   -2.0216 C   0  0  0  0  0  0  0  0  0  0  0  0
    4.7095    1.6837   -0.0012 C   0  0  0  0  0  0  0  0  0  0  0  0
    1.5070   -0.2719    2.4432 H   0  0  0  0  0  0  0  0  0  0  0  0
    0.0532    2.5792    0.6658 H   0  0  0  0  0  0  0  0  0  0  0  0
   -0.0317    1.7271    2.2239 H   0  0  0  0  0  0  0  0  0  0  0  0
    2.2292    1.7561    1.4929 H   0  0  0  0  0  0  0  0  0  0  0  0
    1.8457    1.2799   -0.1804 H   0  0  0  0  0  0  0  0  0  0  0  0
   -2.8183    2.6894   -0.5122 H   0  0  0  0  0  0  0  0  0  0  0  0
   -2.7325    2.5475    1.2601 H   0  0  0  0  0  0  0  0  0  0  0  0
   -4.7095    1.2394    1.4312 H   0  0  0  0  0  0  0  0  0  0  0  0
   -5.0273    2.5689    0.2902 H   0  0  0  0  0  0  0  0  0  0  0  0
   -4.8608    1.0287   -1.6315 H   0  0  0  0  0  0  0  0  0  0  0  0
   -5.9201    0.3086   -0.3223 H   0  0  0  0  0  0  0  0  0  0  0  0
    3.7490   -0.0922    2.0135 H   0  0  0  0  0  0  0  0  0  0  0  0
    3.2304   -1.7603    1.7586 H   0  0  0  0  0  0  0  0  0  0  0  0
   -1.2724   -3.3245   -0.4385 H   0  0  0  0  0  0  0  0  0  0  0  0
   -5.2754   -1.9847   -1.3156 H   0  0  0  0  0  0  0  0  0  0  0  0
   -3.6069   -3.7945   -1.2467 H   0  0  0  0  0  0  0  0  0  0  0  0
    3.4644   -2.7270   -0.8479 H   0  0  0  0  0  0  0  0  0  0  0  0
    4.7791   -1.8865   -2.9160 H   0  0  0  0  0  0  0  0  0  0  0  0
    3.9685    2.3652   -0.4575 H   0  0  0  0  0  0  0  0  0  0  0  0
    4.5949    1.7253    1.0882 H   0  0  0  0  0  0  0  0  0  0  0  0
    5.7526    2.0117   -0.2251 H   0  0  0  0  0  0  0  0  0  0  0  0
  1 13  2  0
  2  5  1  0
  2  9  1  0
  2 12  1  0
  3 17  1  0
  3 21  1  0
  3 22  1  0
  4 21  2  0
  4 23  1  0
  5  7  2  0
  5  8  1  0
  6 10  1  0
  6 13  1  0
  6 17  1  0
  7 11  1  0
  7 13  1  0
  8 10  1  0
  9 11  2  0
  9 14  1  0
 11 18  1  0
 12 15  1  0
 14 16  1  0
 14 19  2  0
 15 16  1  0
 18 20  2  0
 19 20  1  0
 21 24  1  0
 22 23  2  0
  6 25  1  1
  8 26  1  0
  8 27  1  0
 10 28  1  0
 10 29  1  0
 12 30  1  0
 12 31  1  0
 15 32  1  0
 15 33  1  0
 16 34  1  0
 16 35  1  0
 17 36  1  0
 17 37  1  0
 18 38  1  0
 19 39  1  0
 20 40  1  0
 22 41  1  0
 23 42  1  0
 24 43  1  0
 24 44  1  0
 24 45  1  0
M  END

