175426884
     RDKit          3D

 75 80  0  0  1  0  0  0  0  0999 V2000
    9.0688   -1.0712    2.5632 O   0  0  0  0  0  0  0  0  0  0  0  0
    9.8331   -1.5083    0.0169 O   0  0  0  0  0  0  0  0  0  0  0  0
   -5.1121   -2.5405    0.2439 O   0  0  0  0  0  0  0  0  0  0  0  0
  -10.0480    0.5455    0.0667 O   0  0  0  0  0  0  0  0  0  0  0  0
   -3.4905    2.7627    0.8687 O   0  0  0  0  0  0  0  0  0  0  0  0
    4.0604    0.9664   -0.1381 N   0  0  0  0  0  0  0  0  0  0  0  0
   -3.7340    1.2484   -0.8650 N   0  0  0  0  0  0  0  0  0  0  0  0
   -6.1542   -0.0088    0.1740 N   0  0  0  0  0  0  0  0  0  0  0  0
    4.6920    1.4373   -1.3141 C   0  0  0  0  0  0  0  0  0  0  0  0
    4.8296    0.8215    1.0296 C   0  0  0  0  0  0  0  0  0  0  0  0
    5.6921    0.3419   -1.7477 C   0  0  0  0  0  0  0  0  0  0  0  0
    6.1427    0.2052    0.7214 C   0  0  0  0  0  0  0  0  0  0  0  0
    6.5303   -0.0168   -0.5768 C   0  0  0  0  0  0  0  0  0  0  0  0
    2.6771    1.2435   -0.0166 C   0  0  0  0  0  0  0  0  0  0  0  0
    1.9167    0.4357   -1.0350 C   0  0  0  0  0  0  0  0  0  0  0  0
    6.9872   -0.1460    1.7758 C   0  0  0  0  0  0  0  0  0  0  0  0
    7.7581   -0.5876   -0.8100 C   0  0  0  0  0  0  0  0  0  0  0  0
    8.1994   -0.7088    1.5494 C   0  0  0  0  0  0  0  0  0  0  0  0
    8.5980   -0.9361    0.2313 C   0  0  0  0  0  0  0  0  0  0  0  0
    0.4552    0.6698   -1.0051 C   0  0  0  0  0  0  0  0  0  0  0  0
   -0.1418    1.6693   -1.7810 C   0  0  0  0  0  0  0  0  0  0  0  0
   -0.3644   -0.0959   -0.2125 C   0  0  0  0  0  0  0  0  0  0  0  0
   -2.3169    1.0694   -0.9218 C   0  0  0  0  0  0  0  0  0  0  0  0
   -1.5085    1.8502   -1.7259 C   0  0  0  0  0  0  0  0  0  0  0  0
   -1.7484    0.0738   -0.1447 C   0  0  0  0  0  0  0  0  0  0  0  0
   -6.5843    1.2719    0.1419 C   0  0  0  0  0  0  0  0  0  0  0  0
   -7.9512    1.4597    0.1059 C   0  0  0  0  0  0  0  0  0  0  0  0
   -5.7101    2.3136    0.1761 C   0  0  0  0  0  0  0  0  0  0  0  0
   -6.9785   -1.0751    0.1691 C   0  0  0  0  0  0  0  0  0  0  0  0
   -8.3460   -0.9153    0.1320 C   0  0  0  0  0  0  0  0  0  0  0  0
   -8.8037    0.3892    0.1008 C   0  0  0  0  0  0  0  0  0  0  0  0
   -4.2809    2.1309    0.0918 C   0  0  0  0  0  0  0  0  0  0  0  0
    8.7954   -0.8914    3.9107 C   0  0  0  0  0  0  0  0  0  0  0  0
   10.2540   -1.7416   -1.3293 C   0  0  0  0  0  0  0  0  0  0  0  0
   -8.4250    2.7469    0.1099 C   0  0  0  0  0  0  0  0  0  0  0  0
   -6.2039    3.6123    0.1811 C   0  0  0  0  0  0  0  0  0  0  0  0
   -6.4973   -2.3796    0.2085 C   0  0  0  0  0  0  0  0  0  0  0  0
   -9.2317   -1.9727    0.1320 C   0  0  0  0  0  0  0  0  0  0  0  0
   -7.5487    3.8076    0.1484 C   0  0  0  0  0  0  0  0  0  0  0  0
   -7.3422   -3.4475    0.2102 C   0  0  0  0  0  0  0  0  0  0  0  0
   -8.6981   -3.2446    0.1719 C   0  0  0  0  0  0  0  0  0  0  0  0
   -4.5431   -3.8118    0.2927 C   0  0  0  0  0  0  0  0  0  0  0  0
   -4.3481    0.7639   -1.5341 H   0  0  0  0  0  0  0  0  0  0  0  0
   -5.1211   -0.2521    0.2463 H   0  0  0  0  0  0  0  0  0  0  0  0
    3.9753    1.5362   -2.1301 H   0  0  0  0  0  0  0  0  0  0  0  0
    5.2244    2.4022   -1.2014 H   0  0  0  0  0  0  0  0  0  0  0  0
    4.9394    1.7485    1.6359 H   0  0  0  0  0  0  0  0  0  0  0  0
    4.2937    0.0750    1.6880 H   0  0  0  0  0  0  0  0  0  0  0  0
    5.1483   -0.5586   -2.0669 H   0  0  0  0  0  0  0  0  0  0  0  0
    6.2741    0.7596   -2.5737 H   0  0  0  0  0  0  0  0  0  0  0  0
    2.4509    2.3402   -0.1045 H   0  0  0  0  0  0  0  0  0  0  0  0
    2.3099    0.9818    1.0167 H   0  0  0  0  0  0  0  0  0  0  0  0
    2.2314    0.6075   -2.0783 H   0  0  0  0  0  0  0  0  0  0  0  0
    2.1649   -0.6349   -0.8327 H   0  0  0  0  0  0  0  0  0  0  0  0
    6.6420    0.0486    2.7662 H   0  0  0  0  0  0  0  0  0  0  0  0
    8.1069   -0.7830   -1.8218 H   0  0  0  0  0  0  0  0  0  0  0  0
    0.4858    2.2900   -2.4134 H   0  0  0  0  0  0  0  0  0  0  0  0
    0.0539   -0.8734    0.3975 H   0  0  0  0  0  0  0  0  0  0  0  0
   -2.0175    2.6073   -2.3035 H   0  0  0  0  0  0  0  0  0  0  0  0
   -2.3523   -0.5494    0.4901 H   0  0  0  0  0  0  0  0  0  0  0  0
    7.7197   -0.8919    4.1631 H   0  0  0  0  0  0  0  0  0  0  0  0
    9.2872   -1.7001    4.5253 H   0  0  0  0  0  0  0  0  0  0  0  0
    9.2696    0.0706    4.2519 H   0  0  0  0  0  0  0  0  0  0  0  0
    9.5612   -2.3736   -1.8866 H   0  0  0  0  0  0  0  0  0  0  0  0
   10.4163   -0.7298   -1.7688 H   0  0  0  0  0  0  0  0  0  0  0  0
   11.2296   -2.2646   -1.2670 H   0  0  0  0  0  0  0  0  0  0  0  0
   -9.4832    2.9400    0.0850 H   0  0  0  0  0  0  0  0  0  0  0  0
   -5.5172    4.4338    0.2105 H   0  0  0  0  0  0  0  0  0  0  0  0
  -10.3034   -1.7945    0.1010 H   0  0  0  0  0  0  0  0  0  0  0  0
   -7.9269    4.8372    0.1527 H   0  0  0  0  0  0  0  0  0  0  0  0
   -6.9976   -4.4635    0.2412 H   0  0  0  0  0  0  0  0  0  0  0  0
   -9.4043   -4.0566    0.1700 H   0  0  0  0  0  0  0  0  0  0  0  0
   -5.1096   -4.4837    0.9744 H   0  0  0  0  0  0  0  0  0  0  0  0
   -3.5214   -3.6967    0.7702 H   0  0  0  0  0  0  0  0  0  0  0  0
   -4.4082   -4.3094   -0.6703 H   0  0  0  0  0  0  0  0  0  0  0  0
  1 18  1  0
  1 33  1  0
  2 19  1  0
  2 34  1  0
  3 37  1  0
  3 42  1  0
  4 31  2  0
  5 32  2  0
  6  9  1  0
  6 10  1  0
  6 14  1  0
  7 23  1  0
  7 32  1  0
  8 26  1  0
  8 29  1  0
  9 11  1  0
 10 12  1  0
 11 13  1  0
 12 13  2  0
 12 16  1  0
 13 17  1  0
 14 15  1  0
 15 20  1  0
 16 18  2  0
 17 19  2  0
 18 19  1  0
 20 21  2  0
 20 22  1  0
 21 24  1  0
 22 25  2  0
 23 24  2  0
 23 25  1  0
 26 27  2  0
 26 28  1  0
 27 31  1  0
 27 35  1  0
 28 32  1  0
 28 36  2  0
 29 30  2  0
 29 37  1  0
 30 31  1  0
 30 38  1  0
 35 39  2  0
 36 39  1  0
 37 40  2  0
 38 41  2  0
 40 41  1  0
  7 43  1  0
  8 44  1  0
  9 45  1  0
  9 46  1  0
 10 47  1  0
 10 48  1  0
 11 49  1  0
 11 50  1  0
 14 51  1  0
 14 52  1  0
 15 53  1  0
 15 54  1  0
 16 55  1  0
 17 56  1  0
 21 57  1  0
 22 58  1  0
 24 59  1  0
 25 60  1  0
 33 61  1  0
 33 62  1  0
 33 63  1  0
 34 64  1  0
 34 65  1  0
 34 66  1  0
 35 67  1  0
 36 68  1  0
 38 69  1  0
 39 70  1  0
 40 71  1  0
 41 72  1  0
 42 73  1  0
 42 74  1  0
 42 75  1  0
M  END

