310265092
     RDKit          3D

 50 52  0  0  1  0  0  0  0  0999 V2000
    3.5056    0.5057   -3.8326 F   0  0  0  0  0  0  0  0  0  0  0  0
   -2.2499    0.8800   -1.3139 O   0  0  0  0  0  0  0  0  0  0  0  0
   -0.3919   -1.3509   -1.6597 O   0  0  0  0  0  0  0  0  0  0  0  0
    3.0831    0.3034    1.6287 O   0  0  0  0  0  0  0  0  0  0  0  0
   -2.9364   -3.4155    1.1733 O   0  0  0  0  0  0  0  0  0  0  0  0
   -1.7648    2.5731    0.7419 N   0  0  0  0  0  0  0  0  0  0  0  0
   -0.4018   -0.4847   -0.5243 C   0  0  1  0  0  0  0  0  0  0  0  0
   -0.9631    0.8767   -0.8577 C   0  0  2  0  0  0  0  0  0  0  0  0
   -1.3669   -1.1818    0.3995 C   0  0  0  0  0  0  0  0  0  0  0  0
    0.9298   -0.4718    0.1271 C   0  0  0  0  0  0  0  0  0  0  0  0
    2.1009   -0.0291   -0.5743 C   0  0  0  0  0  0  0  0  0  0  0  0
   -0.6116    1.9707    0.0783 C   0  0  0  0  0  0  0  0  0  0  0  0
   -2.7196   -1.3978   -0.1833 C   0  0  0  0  0  0  0  0  0  0  0  0
   -0.8182   -2.3984    1.0936 C   0  0  0  0  0  0  0  0  0  0  0  0
    3.1884    0.3543    0.2409 C   0  0  0  0  0  0  0  0  0  0  0  0
    2.2521    0.0386   -1.9405 C   0  0  0  0  0  0  0  0  0  0  0  0
   -3.0926    1.8860   -1.0634 C   0  0  0  0  0  0  0  0  0  0  0  0
    3.4474    0.4737   -2.4648 C   0  0  0  0  0  0  0  0  0  0  0  0
   -2.5711    3.0926   -0.3518 C   0  0  0  0  0  0  0  0  0  0  0  0
    4.3659    0.7831   -0.2999 C   0  0  0  0  0  0  0  0  0  0  0  0
   -1.9755   -2.8952    1.9759 C   0  0  0  0  0  0  0  0  0  0  0  0
   -3.2380   -2.8049    0.0117 C   0  0  0  0  0  0  0  0  0  0  0  0
    4.5206    0.8526   -1.6901 C   0  0  0  0  0  0  0  0  0  0  0  0
    4.1514    0.6786    2.4671 C   0  0  0  0  0  0  0  0  0  0  0  0
    0.0803   -2.1498   -1.3595 H   0  0  0  0  0  0  0  0  0  0  0  0
   -1.3648    3.3717    1.3161 H   0  0  0  0  0  0  0  0  0  0  0  0
   -0.3805    1.1561   -1.8176 H   0  0  0  0  0  0  0  0  0  0  0  0
   -1.5319   -0.4366    1.2453 H   0  0  0  0  0  0  0  0  0  0  0  0
    0.8601   -0.0336    1.1291 H   0  0  0  0  0  0  0  0  0  0  0  0
    1.1477   -1.5811    0.3601 H   0  0  0  0  0  0  0  0  0  0  0  0
    0.1009    1.7288    0.8557 H   0  0  0  0  0  0  0  0  0  0  0  0
   -0.1464    2.8580   -0.4630 H   0  0  0  0  0  0  0  0  0  0  0  0
   -3.4909   -0.6785    0.1310 H   0  0  0  0  0  0  0  0  0  0  0  0
   -2.6373   -1.2988   -1.3095 H   0  0  0  0  0  0  0  0  0  0  0  0
   -0.5077   -3.2116    0.4492 H   0  0  0  0  0  0  0  0  0  0  0  0
   -0.0402   -2.1103    1.8552 H   0  0  0  0  0  0  0  0  0  0  0  0
    1.4058   -0.2597   -2.5243 H   0  0  0  0  0  0  0  0  0  0  0  0
   -3.5219    2.2558   -2.0460 H   0  0  0  0  0  0  0  0  0  0  0  0
   -4.0342    1.5743   -0.5023 H   0  0  0  0  0  0  0  0  0  0  0  0
   -2.0137    3.8068   -0.9809 H   0  0  0  0  0  0  0  0  0  0  0  0
   -3.4204    3.6461    0.0834 H   0  0  0  0  0  0  0  0  0  0  0  0
    5.2139    1.0814    0.2881 H   0  0  0  0  0  0  0  0  0  0  0  0
   -1.5469   -3.7331    2.5888 H   0  0  0  0  0  0  0  0  0  0  0  0
   -2.2801   -2.0664    2.6453 H   0  0  0  0  0  0  0  0  0  0  0  0
   -4.3519   -2.7483   -0.0965 H   0  0  0  0  0  0  0  0  0  0  0  0
   -2.9153   -3.4824   -0.8313 H   0  0  0  0  0  0  0  0  0  0  0  0
    5.4484    1.1894   -2.1380 H   0  0  0  0  0  0  0  0  0  0  0  0
    4.0091    0.4094    3.5089 H   0  0  0  0  0  0  0  0  0  0  0  0
    4.4143    1.7597    2.3217 H   0  0  0  0  0  0  0  0  0  0  0  0
    5.0598    0.1142    2.1096 H   0  0  0  0  0  0  0  0  0  0  0  0
  1 18  1  0
  2  8  1  0
  2 17  1  0
  7  3  1  6
  4 15  1  0
  4 24  1  0
  5 21  1  0
  5 22  1  0
  6 12  1  0
  6 19  1  0
  7  8  1  0
  7  9  1  0
  7 10  1  0
  8 12  1  0
  9 13  1  0
  9 14  1  0
 10 11  1  0
 11 15  2  0
 11 16  1  0
 13 22  1  0
 14 21  1  0
 15 20  1  0
 16 18  2  0
 17 19  1  0
 18 23  1  0
 20 23  2  0
  3 25  1  0
  6 26  1  0
  8 27  1  6
  9 28  1  0
 10 29  1  0
 10 30  1  0
 12 31  1  0
 12 32  1  0
 13 33  1  0
 13 34  1  0
 14 35  1  0
 14 36  1  0
 16 37  1  0
 17 38  1  0
 17 39  1  0
 19 40  1  0
 19 41  1  0
 20 42  1  0
 21 43  1  0
 21 44  1  0
 22 45  1  0
 22 46  1  0
 23 47  1  0
 24 48  1  0
 24 49  1  0
 24 50  1  0
M  END

