310265098
     RDKit          3D

 47 49  0  0  1  0  0  0  0  0999 V2000
   -0.4595    0.3551    1.4697 O   0  0  0  0  0  0  0  0  0  0  0  0
    3.6307   -1.3591   -0.9796 N   0  0  0  0  0  0  0  0  0  0  0  0
   -0.1272    0.4827    0.1256 C   0  0  0  0  0  0  0  0  0  0  0  0
   -1.6659   -0.2810    1.5831 C   0  0  0  0  0  0  0  0  0  0  0  0
   -0.9338   -0.5196   -0.5630 C   0  0  0  0  0  0  0  0  0  0  0  0
   -1.8878   -0.9970    0.3126 C   0  0  0  0  0  0  0  0  0  0  0  0
    1.3644    0.2202    0.0084 C   0  0  0  0  0  0  0  0  0  0  0  0
   -0.3426    1.8816   -0.2721 C   0  0  0  0  0  0  0  0  0  0  0  0
    1.6958   -1.1831    0.5023 C   0  0  0  0  0  0  0  0  0  0  0  0
   -2.8170    0.6468    1.8705 C   0  0  0  0  0  0  0  0  0  0  0  0
   -1.5401   -1.2760    2.7244 C   0  0  0  0  0  0  0  0  0  0  0  0
   -0.9835   -1.0975   -1.8322 C   0  0  0  0  0  0  0  0  0  0  0  0
   -2.8231   -1.9523    0.0108 C   0  0  0  0  0  0  0  0  0  0  0  0
    3.1681   -1.4604    0.3920 C   0  0  0  0  0  0  0  0  0  0  0  0
   -0.2624    2.2742   -1.6043 C   0  0  0  0  0  0  0  0  0  0  0  0
   -0.6208    2.8167    0.7063 C   0  0  0  0  0  0  0  0  0  0  0  0
   -1.9114   -2.0617   -2.1707 C   0  0  0  0  0  0  0  0  0  0  0  0
   -2.8302   -2.4929   -1.2603 C   0  0  0  0  0  0  0  0  0  0  0  0
   -0.4628    3.5850   -1.9153 C   0  0  0  0  0  0  0  0  0  0  0  0
   -0.8178    4.1317    0.3577 C   0  0  0  0  0  0  0  0  0  0  0  0
   -0.7429    4.5337   -0.9465 C   0  0  0  0  0  0  0  0  0  0  0  0
    5.0308   -1.6204   -1.0980 C   0  0  0  0  0  0  0  0  0  0  0  0
    3.0393   -1.9072   -1.6428 H   0  0  0  0  0  0  0  0  0  0  0  0
    1.6894    0.2853   -1.0325 H   0  0  0  0  0  0  0  0  0  0  0  0
    1.9173    0.9554    0.6141 H   0  0  0  0  0  0  0  0  0  0  0  0
    1.1224   -1.9468   -0.0242 H   0  0  0  0  0  0  0  0  0  0  0  0
    1.4470   -1.2685    1.5984 H   0  0  0  0  0  0  0  0  0  0  0  0
   -2.5098    1.2983    2.7129 H   0  0  0  0  0  0  0  0  0  0  0  0
   -3.6582    0.0085    2.2278 H   0  0  0  0  0  0  0  0  0  0  0  0
   -3.1013    1.2461    0.9857 H   0  0  0  0  0  0  0  0  0  0  0  0
   -2.0407   -0.8225    3.6260 H   0  0  0  0  0  0  0  0  0  0  0  0
   -0.4846   -1.4462    3.0070 H   0  0  0  0  0  0  0  0  0  0  0  0
   -2.0008   -2.2514    2.4866 H   0  0  0  0  0  0  0  0  0  0  0  0
   -0.2949   -0.8131   -2.5846 H   0  0  0  0  0  0  0  0  0  0  0  0
   -3.5630   -2.3206    0.6944 H   0  0  0  0  0  0  0  0  0  0  0  0
    3.7212   -0.6985    0.9723 H   0  0  0  0  0  0  0  0  0  0  0  0
    3.3930   -2.4819    0.7298 H   0  0  0  0  0  0  0  0  0  0  0  0
   -0.0390    1.5088   -2.3372 H   0  0  0  0  0  0  0  0  0  0  0  0
   -0.6871    2.5533    1.7740 H   0  0  0  0  0  0  0  0  0  0  0  0
   -1.9355   -2.5033   -3.1698 H   0  0  0  0  0  0  0  0  0  0  0  0
   -3.5484   -3.2525   -1.5542 H   0  0  0  0  0  0  0  0  0  0  0  0
   -0.4025    3.9058   -2.9588 H   0  0  0  0  0  0  0  0  0  0  0  0
   -1.0385    4.8681    1.1420 H   0  0  0  0  0  0  0  0  0  0  0  0
   -0.9026    5.5813   -1.2003 H   0  0  0  0  0  0  0  0  0  0  0  0
    5.6167   -0.6937   -1.0479 H   0  0  0  0  0  0  0  0  0  0  0  0
    5.2262   -2.0726   -2.1025 H   0  0  0  0  0  0  0  0  0  0  0  0
    5.3733   -2.3588   -0.3372 H   0  0  0  0  0  0  0  0  0  0  0  0
  1  3  1  0
  1  4  1  0
  2 14  1  0
  2 22  1  0
  3  5  1  0
  3  7  1  0
  3  8  1  0
  4  6  1  0
  4 10  1  0
  4 11  1  0
  5  6  2  0
  5 12  1  0
  6 13  1  0
  7  9  1  0
  8 15  2  0
  8 16  1  0
  9 14  1  0
 12 17  2  0
 13 18  2  0
 15 19  1  0
 16 20  2  0
 17 18  1  0
 19 21  2  0
 20 21  1  0
  2 23  1  0
  7 24  1  0
  7 25  1  0
  9 26  1  0
  9 27  1  0
 10 28  1  0
 10 29  1  0
 10 30  1  0
 11 31  1  0
 11 32  1  0
 11 33  1  0
 12 34  1  0
 13 35  1  0
 14 36  1  0
 14 37  1  0
 15 38  1  0
 16 39  1  0
 17 40  1  0
 18 41  1  0
 19 42  1  0
 20 43  1  0
 21 44  1  0
 22 45  1  0
 22 46  1  0
 22 47  1  0
M  END

