310264923
     RDKit          3D

 69 69  0  0  1  0  0  0  0  0999 V2000
   -6.7394   -0.6767    1.1854 C   0  0  0  0  0  0  0  0  0  0  0  0
    7.1489    1.2631   -0.6398 C   0  0  0  0  0  0  0  0  0  0  0  0
   -4.7938    3.1305   -0.5713 C   0  0  0  0  0  0  0  0  0  0  0  0
    2.6309   -0.1332   -2.2550 C   0  0  0  0  0  0  0  0  0  0  0  0
   -0.6916   -3.5906    1.0402 C   0  0  0  0  0  0  0  0  0  0  0  0
   -5.7277   -1.3824    0.3460 C   0  0  0  0  0  0  0  0  0  0  0  0
    6.5937    0.1591    0.2273 C   0  0  0  0  0  0  0  0  0  0  0  0
   -3.7375    2.2499   -1.1844 C   0  0  0  0  0  0  0  0  0  0  0  0
    3.7944    0.4201   -1.4192 C   0  0  0  0  0  0  0  0  0  0  0  0
   -4.8155   -0.4657   -0.4013 C   0  0  0  0  0  0  0  0  0  0  0  0
    5.6171    0.6664    1.2243 C   0  0  0  0  0  0  0  0  0  0  0  0
   -4.0258    0.4420    0.5031 C   0  0  0  0  0  0  0  0  0  0  0  0
    4.4290    1.3937    0.7983 C   0  0  0  0  0  0  0  0  0  0  0  0
   -1.7671    0.8206   -0.6515 C   0  0  0  0  0  0  0  0  0  0  0  0
    2.6161   -0.2274    0.7142 C   0  0  0  0  0  0  0  0  0  0  0  0
   -1.3787   -1.2799    0.4265 C   0  0  0  0  0  0  0  0  0  0  0  0
    0.9165   -1.7463    0.9975 C   0  0  0  0  0  0  0  0  0  0  0  0
    0.3482    0.4068    0.3061 C   0  0  0  0  0  0  0  0  0  0  0  0
   -3.0603    1.3407   -0.1533 C   0  0  0  0  0  0  0  0  0  0  0  0
    3.3822    0.8261   -0.0594 C   0  0  0  0  0  0  0  0  0  0  0  0
   -0.2713   -2.3370    0.2888 C   0  0  0  0  0  0  0  0  0  0  0  0
   -0.0475   -2.6311   -1.0825 N   0  0  0  0  0  0  0  0  0  0  0  0
   -0.9737   -0.0009    0.1674 N   0  0  0  0  0  0  0  0  0  0  0  0
    1.3642   -0.6200    0.1277 N   0  0  0  0  0  0  0  0  0  0  0  0
   -6.9038    0.3666    0.8104 H   0  0  0  0  0  0  0  0  0  0  0  0
   -7.6682   -1.2824    1.2016 H   0  0  0  0  0  0  0  0  0  0  0  0
   -6.4339   -0.5767    2.2509 H   0  0  0  0  0  0  0  0  0  0  0  0
    7.9278    0.8327   -1.3243 H   0  0  0  0  0  0  0  0  0  0  0  0
    7.7065    1.9937    0.0031 H   0  0  0  0  0  0  0  0  0  0  0  0
    6.3730    1.7284   -1.2454 H   0  0  0  0  0  0  0  0  0  0  0  0
   -4.7522    4.1770   -0.9440 H   0  0  0  0  0  0  0  0  0  0  0  0
   -4.7156    3.0598    0.5203 H   0  0  0  0  0  0  0  0  0  0  0  0
   -5.8123    2.7663   -0.8624 H   0  0  0  0  0  0  0  0  0  0  0  0
    2.4146   -1.1438   -1.8950 H   0  0  0  0  0  0  0  0  0  0  0  0
    2.9919   -0.2016   -3.3141 H   0  0  0  0  0  0  0  0  0  0  0  0
    1.7407    0.5131   -2.2128 H   0  0  0  0  0  0  0  0  0  0  0  0
    0.0547   -3.9330    1.7682 H   0  0  0  0  0  0  0  0  0  0  0  0
   -0.9349   -4.3929    0.3130 H   0  0  0  0  0  0  0  0  0  0  0  0
   -1.6306   -3.3805    1.5914 H   0  0  0  0  0  0  0  0  0  0  0  0
   -6.2721   -1.9945   -0.4093 H   0  0  0  0  0  0  0  0  0  0  0  0
   -5.1832   -2.1166    0.9793 H   0  0  0  0  0  0  0  0  0  0  0  0
    7.5226   -0.1346    0.8789 H   0  0  0  0  0  0  0  0  0  0  0  0
    6.3544   -0.7243   -0.3405 H   0  0  0  0  0  0  0  0  0  0  0  0
   -2.9098    2.8475   -1.6378 H   0  0  0  0  0  0  0  0  0  0  0  0
   -4.1962    1.6755   -1.9922 H   0  0  0  0  0  0  0  0  0  0  0  0
    4.1510    1.3016   -2.0364 H   0  0  0  0  0  0  0  0  0  0  0  0
    4.5610   -0.3533   -1.4988 H   0  0  0  0  0  0  0  0  0  0  0  0
   -5.4965    0.1458   -1.0769 H   0  0  0  0  0  0  0  0  0  0  0  0
   -4.2020   -1.0373   -1.0959 H   0  0  0  0  0  0  0  0  0  0  0  0
    5.3879   -0.1295    2.0121 H   0  0  0  0  0  0  0  0  0  0  0  0
    6.2224    1.4030    1.8688 H   0  0  0  0  0  0  0  0  0  0  0  0
   -3.5398   -0.1489    1.2850 H   0  0  0  0  0  0  0  0  0  0  0  0
   -4.7427    1.1107    1.0936 H   0  0  0  0  0  0  0  0  0  0  0  0
    4.8158    2.3455    0.2701 H   0  0  0  0  0  0  0  0  0  0  0  0
    3.9737    1.8805    1.7369 H   0  0  0  0  0  0  0  0  0  0  0  0
   -1.1640    1.7655   -0.9365 H   0  0  0  0  0  0  0  0  0  0  0  0
   -1.8968    0.3624   -1.6961 H   0  0  0  0  0  0  0  0  0  0  0  0
    2.4094    0.2314    1.7114 H   0  0  0  0  0  0  0  0  0  0  0  0
    3.2096   -1.1354    0.8927 H   0  0  0  0  0  0  0  0  0  0  0  0
   -2.2321   -1.6949   -0.1241 H   0  0  0  0  0  0  0  0  0  0  0  0
   -1.6465   -1.3871    1.5286 H   0  0  0  0  0  0  0  0  0  0  0  0
    0.5600   -1.2332    1.9306 H   0  0  0  0  0  0  0  0  0  0  0  0
    1.7256   -2.4487    1.1788 H   0  0  0  0  0  0  0  0  0  0  0  0
    0.6114    1.2743   -0.3099 H   0  0  0  0  0  0  0  0  0  0  0  0
    0.4970    0.7592    1.3710 H   0  0  0  0  0  0  0  0  0  0  0  0
   -2.7676    2.1024    0.6628 H   0  0  0  0  0  0  0  0  0  0  0  0
    2.6054    1.6629   -0.1891 H   0  0  0  0  0  0  0  0  0  0  0  0
    0.9271   -2.9152   -1.3036 H   0  0  0  0  0  0  0  0  0  0  0  0
   -0.4539   -1.9691   -1.7716 H   0  0  0  0  0  0  0  0  0  0  0  0
  1  6  1  0
  2  7  1  0
  3  8  1  0
  4  9  1  0
  6 10  1  0
  7 11  1  0
 10 12  1  0
 11 13  1  0
  8 19  1  0
 12 19  1  0
 14 19  1  0
  9 20  1  0
 13 20  1  0
 15 20  1  0
  5 21  1  0
 16 21  1  0
 17 21  1  0
 21 22  1  0
 14 23  1  0
 16 23  1  0
 18 23  1  0
 15 24  1  0
 17 24  1  0
 18 24  1  0
  1 25  1  0
  1 26  1  0
  1 27  1  0
  2 28  1  0
  2 29  1  0
  2 30  1  0
  3 31  1  0
  3 32  1  0
  3 33  1  0
  4 34  1  0
  4 35  1  0
  4 36  1  0
  5 37  1  0
  5 38  1  0
  5 39  1  0
  6 40  1  0
  6 41  1  0
  7 42  1  0
  7 43  1  0
  8 44  1  0
  8 45  1  0
  9 46  1  0
  9 47  1  0
 10 48  1  0
 10 49  1  0
 11 50  1  0
 11 51  1  0
 12 52  1  0
 12 53  1  0
 13 54  1  0
 13 55  1  0
 14 56  1  0
 14 57  1  0
 15 58  1  0
 15 59  1  0
 16 60  1  0
 16 61  1  0
 17 62  1  0
 17 63  1  0
 18 64  1  0
 18 65  1  0
 19 66  1  0
 20 67  1  0
 22 68  1  0
 22 69  1  0
M  END

