310265154
     RDKit          3D

 26 26  0  0  1  0  0  0  0  0999 V2000
    0.2017   -0.4580    0.1009 O   0  0  0  0  0  0  0  0  0  0  0  0
   -3.0107    1.1210   -0.3468 N   0  0  0  0  0  0  0  0  0  0  0  0
   -4.3406    0.7322   -0.1455 N   0  0  0  0  0  0  0  0  0  0  0  0
   -2.0931    0.0618    0.0066 C   0  0  0  0  0  0  0  0  0  0  0  0
   -0.6817    0.5651   -0.2405 C   0  0  0  0  0  0  0  0  0  0  0  0
   -2.3948   -1.1814   -0.7642 C   0  0  0  0  0  0  0  0  0  0  0  0
    1.5907   -0.3429   -0.0014 C   0  0  0  0  0  0  0  0  0  0  0  0
    2.2118    0.8038   -0.4531 C   0  0  0  0  0  0  0  0  0  0  0  0
    2.3941   -1.4044    0.3577 C   0  0  0  0  0  0  0  0  0  0  0  0
    3.5865    0.9015   -0.5482 C   0  0  0  0  0  0  0  0  0  0  0  0
    3.7681   -1.3092    0.2634 C   0  0  0  0  0  0  0  0  0  0  0  0
    4.3909   -0.1633   -0.1880 C   0  0  0  0  0  0  0  0  0  0  0  0
   -2.8440    1.9960    0.1596 H   0  0  0  0  0  0  0  0  0  0  0  0
   -4.4928    0.6330    0.8821 H   0  0  0  0  0  0  0  0  0  0  0  0
   -4.9475    1.4672   -0.5571 H   0  0  0  0  0  0  0  0  0  0  0  0
   -2.2154   -0.1626    1.0860 H   0  0  0  0  0  0  0  0  0  0  0  0
   -0.4949    1.4144    0.4571 H   0  0  0  0  0  0  0  0  0  0  0  0
   -0.5526    0.9508   -1.2518 H   0  0  0  0  0  0  0  0  0  0  0  0
   -3.4464   -1.4594   -0.5592 H   0  0  0  0  0  0  0  0  0  0  0  0
   -2.2440   -1.0859   -1.8481 H   0  0  0  0  0  0  0  0  0  0  0  0
   -1.7573   -2.0024   -0.3389 H   0  0  0  0  0  0  0  0  0  0  0  0
    1.5542    1.6395   -0.7347 H   0  0  0  0  0  0  0  0  0  0  0  0
    1.9232   -2.3129    0.7146 H   0  0  0  0  0  0  0  0  0  0  0  0
    4.0195    1.8299   -0.9109 H   0  0  0  0  0  0  0  0  0  0  0  0
    4.4090   -2.1496    0.5474 H   0  0  0  0  0  0  0  0  0  0  0  0
    5.4660   -0.0844   -0.2633 H   0  0  0  0  0  0  0  0  0  0  0  0
  1  5  1  0
  1  7  1  0
  2  3  1  0
  2  4  1  0
  4  5  1  0
  4  6  1  0
  7  8  2  0
  7  9  1  0
  8 10  1  0
  9 11  2  0
 10 12  2  0
 11 12  1  0
  2 13  1  0
  3 14  1  0
  3 15  1  0
  4 16  1  0
  5 17  1  0
  5 18  1  0
  6 19  1  0
  6 20  1  0
  6 21  1  0
  8 22  1  0
  9 23  1  0
 10 24  1  0
 11 25  1  0
 12 26  1  0
M  END

