310265157
     RDKit          3D

 25 26  0  0  0  0  0  0  0  0999 V2000
   -0.6987    1.9586    0.3804 O   0  0  0  0  0  0  0  0  0  0  0  0
    1.5322    2.5432    0.2114 O   0  0  0  0  0  0  0  0  0  0  0  0
    2.3833   -0.4561    1.6155 O   0  0  0  0  0  0  0  0  0  0  0  0
    0.9853    0.3837   -0.3582 N   0  0  0  0  0  0  0  0  0  0  0  0
    4.4538   -0.6528    0.6436 N   0  0  0  0  0  0  0  0  0  0  0  0
   -1.3084   -0.3020   -0.2101 C   0  0  0  0  0  0  0  0  0  0  0  0
   -1.6328    0.9518    0.2202 C   0  0  0  0  0  0  0  0  0  0  0  0
    0.6124    1.6522    0.0841 C   0  0  0  0  0  0  0  0  0  0  0  0
    0.0596   -0.6933   -0.5410 C   0  0  0  0  0  0  0  0  0  0  0  0
    2.4232    0.1450   -0.6537 C   0  0  0  0  0  0  0  0  0  0  0  0
   -2.3270   -1.2382   -0.3359 C   0  0  0  0  0  0  0  0  0  0  0  0
   -2.9521    1.2649    0.5198 C   0  0  0  0  0  0  0  0  0  0  0  0
    3.0680   -0.3271    0.5721 C   0  0  0  0  0  0  0  0  0  0  0  0
   -3.6290   -0.9304   -0.0405 C   0  0  0  0  0  0  0  0  0  0  0  0
   -3.9719    0.3477    0.4001 C   0  0  0  0  0  0  0  0  0  0  0  0
    4.8705   -1.3789    0.0287 H   0  0  0  0  0  0  0  0  0  0  0  0
    5.0511   -0.1436    1.3325 H   0  0  0  0  0  0  0  0  0  0  0  0
    0.3416   -1.5317    0.1740 H   0  0  0  0  0  0  0  0  0  0  0  0
    0.1440   -1.0852   -1.5869 H   0  0  0  0  0  0  0  0  0  0  0  0
    2.8913    1.1132   -0.9469 H   0  0  0  0  0  0  0  0  0  0  0  0
    2.4716   -0.5511   -1.5030 H   0  0  0  0  0  0  0  0  0  0  0  0
   -2.1059   -2.2378   -0.6731 H   0  0  0  0  0  0  0  0  0  0  0  0
   -3.2258    2.2542    0.8621 H   0  0  0  0  0  0  0  0  0  0  0  0
   -4.4225   -1.6662   -0.1404 H   0  0  0  0  0  0  0  0  0  0  0  0
   -5.0139    0.5799    0.6322 H   0  0  0  0  0  0  0  0  0  0  0  0
  1  7  1  0
  1  8  1  0
  2  8  2  0
  3 13  2  0
  4  8  1  0
  4  9  1  0
  4 10  1  0
  5 13  1  0
  6  7  2  0
  6  9  1  0
  6 11  1  0
  7 12  1  0
 10 13  1  0
 11 14  2  0
 12 15  2  0
 14 15  1  0
  5 16  1  0
  5 17  1  0
  9 18  1  0
  9 19  1  0
 10 20  1  0
 10 21  1  0
 11 22  1  0
 12 23  1  0
 14 24  1  0
 15 25  1  0
M  END

