310265142
     RDKit          3D

 84 88  0  0  1  0  0  0  0  0999 V2000
   -0.9617    0.6861   -0.8574 O   0  0  0  0  0  0  0  0  0  0  0  0
   -2.6249    1.4510    0.4491 O   0  0  0  0  0  0  0  0  0  0  0  0
   -6.7974   -1.1618    1.5441 O   0  0  0  0  0  0  0  0  0  0  0  0
   -6.9824   -3.2553    0.6665 O   0  0  0  0  0  0  0  0  0  0  0  0
   -6.2838    3.1508    2.8428 O   0  0  0  0  0  1  0  0  0  0  0  0
   -7.4969    4.2127    1.2713 O   0  0  0  0  0  0  0  0  0  0  0  0
    2.3002    0.8594    0.6472 N   0  0  0  0  0  0  0  0  0  0  0  0
   -3.2757   -2.9664   -1.2557 N   0  0  0  0  0  0  0  0  0  0  0  0
   -6.7484    3.2687    1.5566 N   0  0  0  0  0  4  0  0  0  0  0  0
    4.8844    0.4827   -0.3087 C   0  0  0  0  0  0  0  0  0  0  0  0
    4.3649    1.8899   -0.1639 C   0  0  0  0  0  0  0  0  0  0  0  0
    3.7692   -0.2940   -0.9679 C   0  0  0  0  0  0  0  0  0  0  0  0
    3.2426    1.8707    0.8039 C   0  0  0  0  0  0  0  0  0  0  0  0
    2.4788   -0.2267   -0.2019 C   0  0  0  0  0  0  0  0  0  0  0  0
    5.3047   -0.0525    0.9742 C   0  0  0  0  0  0  0  0  0  0  0  0
    6.0661    0.4568   -1.2365 C   0  0  0  0  0  0  0  0  0  0  0  0
    1.0431    1.0417    1.2837 C   0  0  0  0  0  0  0  0  0  0  0  0
    0.1873    2.1282    0.7127 C   0  0  0  0  0  0  0  0  0  0  0  0
    5.1462   -1.3764    1.3284 C   0  0  0  0  0  0  0  0  0  0  0  0
    6.4916    1.5862   -1.8995 C   0  0  0  0  0  0  0  0  0  0  0  0
    5.8970    0.7674    1.9035 C   0  0  0  0  0  0  0  0  0  0  0  0
    6.7747   -0.6982   -1.4577 C   0  0  0  0  0  0  0  0  0  0  0  0
   -0.1962    1.8936   -0.7195 C   0  0  0  0  0  0  0  0  0  0  0  0
    5.5610   -1.8618    2.5569 C   0  0  0  0  0  0  0  0  0  0  0  0
    7.5934    1.5325   -2.7499 C   0  0  0  0  0  0  0  0  0  0  0  0
    6.3177    0.3020    3.1349 C   0  0  0  0  0  0  0  0  0  0  0  0
    7.8660   -0.7598   -2.2974 C   0  0  0  0  0  0  0  0  0  0  0  0
    6.1480   -1.0115    3.4570 C   0  0  0  0  0  0  0  0  0  0  0  0
    8.2961    0.3656   -2.9626 C   0  0  0  0  0  0  0  0  0  0  0  0
   -4.2752   -0.8026    0.3171 C   0  0  2  0  0  0  0  0  0  0  0  0
   -2.9741   -0.7324   -0.3790 C   0  0  0  0  0  0  0  0  0  0  0  0
   -2.1643    0.5046   -0.2581 C   0  0  0  0  0  0  0  0  0  0  0  0
   -4.9881   -2.0858    0.1139 C   0  0  0  0  0  0  0  0  0  0  0  0
   -2.5645   -1.7620   -1.0899 C   0  0  0  0  0  0  0  0  0  0  0  0
   -5.1647    0.3261   -0.0548 C   0  0  0  0  0  0  0  0  0  0  0  0
   -4.5523   -3.0913   -0.6003 C   0  0  0  0  0  0  0  0  0  0  0  0
   -1.2223   -1.6236   -1.7666 C   0  0  0  0  0  0  0  0  0  0  0  0
   -5.5366    1.2532    0.8852 C   0  0  0  0  0  0  0  0  0  0  0  0
   -5.6332    0.4598   -1.3353 C   0  0  0  0  0  0  0  0  0  0  0  0
   -6.2994   -2.2235    0.7729 C   0  0  0  0  0  0  0  0  0  0  0  0
   -5.2962   -4.3735   -0.7792 C   0  0  0  0  0  0  0  0  0  0  0  0
   -6.3729    2.3207    0.5757 C   0  0  0  0  0  0  0  0  0  0  0  0
   -6.4754    1.5262   -1.6673 C   0  0  0  0  0  0  0  0  0  0  0  0
   -6.8403    2.4547   -0.7001 C   0  0  0  0  0  0  0  0  0  0  0  0
   -8.0452   -1.2969    2.1664 C   0  0  0  0  0  0  0  0  0  0  0  0
   -2.9117   -3.7568   -1.8280 H   0  0  0  0  0  0  0  0  0  0  0  0
    5.1602    2.6119    0.1075 H   0  0  0  0  0  0  0  0  0  0  0  0
    3.9325    2.1592   -1.1702 H   0  0  0  0  0  0  0  0  0  0  0  0
    4.0624   -1.3304   -1.2373 H   0  0  0  0  0  0  0  0  0  0  0  0
    3.5905    0.2145   -1.9438 H   0  0  0  0  0  0  0  0  0  0  0  0
    3.6722    1.7815    1.8488 H   0  0  0  0  0  0  0  0  0  0  0  0
    2.8059    2.9175    0.8243 H   0  0  0  0  0  0  0  0  0  0  0  0
    1.5974   -0.3285   -0.8713 H   0  0  0  0  0  0  0  0  0  0  0  0
    2.4572   -1.1717    0.4231 H   0  0  0  0  0  0  0  0  0  0  0  0
    0.4950    0.0638    1.2674 H   0  0  0  0  0  0  0  0  0  0  0  0
    1.2071    1.2696    2.3541 H   0  0  0  0  0  0  0  0  0  0  0  0
   -0.6835    2.2774    1.3749 H   0  0  0  0  0  0  0  0  0  0  0  0
    0.7526    3.0935    0.7356 H   0  0  0  0  0  0  0  0  0  0  0  0
    4.6918   -2.0465    0.6448 H   0  0  0  0  0  0  0  0  0  0  0  0
    5.9519    2.5281   -1.7518 H   0  0  0  0  0  0  0  0  0  0  0  0
    6.0792    1.8345    1.7414 H   0  0  0  0  0  0  0  0  0  0  0  0
    6.4403   -1.6058   -0.9318 H   0  0  0  0  0  0  0  0  0  0  0  0
   -0.8139    2.7316   -1.1202 H   0  0  0  0  0  0  0  0  0  0  0  0
    0.6759    1.8110   -1.3729 H   0  0  0  0  0  0  0  0  0  0  0  0
    5.4388   -2.9069    2.8452 H   0  0  0  0  0  0  0  0  0  0  0  0
    7.9219    2.4412   -3.2721 H   0  0  0  0  0  0  0  0  0  0  0  0
    6.7859    0.9606    3.8635 H   0  0  0  0  0  0  0  0  0  0  0  0
    8.3892   -1.6994   -2.4353 H   0  0  0  0  0  0  0  0  0  0  0  0
    6.4704   -1.4200    4.4300 H   0  0  0  0  0  0  0  0  0  0  0  0
    9.1544    0.3591   -3.6343 H   0  0  0  0  0  0  0  0  0  0  0  0
   -4.0563   -0.7685    1.4266 H   0  0  0  0  0  0  0  0  0  0  0  0
   -0.4178   -1.5509   -1.0338 H   0  0  0  0  0  0  0  0  0  0  0  0
   -1.2345   -0.8493   -2.5555 H   0  0  0  0  0  0  0  0  0  0  0  0
   -1.0581   -2.6022   -2.3057 H   0  0  0  0  0  0  0  0  0  0  0  0
   -5.1973    1.1997    1.9158 H   0  0  0  0  0  0  0  0  0  0  0  0
   -5.3941   -0.2193   -2.1371 H   0  0  0  0  0  0  0  0  0  0  0  0
   -6.2614   -4.1736   -1.2856 H   0  0  0  0  0  0  0  0  0  0  0  0
   -5.4119   -4.8324    0.2166 H   0  0  0  0  0  0  0  0  0  0  0  0
   -4.6816   -5.0583   -1.4322 H   0  0  0  0  0  0  0  0  0  0  0  0
   -6.8593    1.6621   -2.6527 H   0  0  0  0  0  0  0  0  0  0  0  0
   -7.5027    3.2918   -0.9608 H   0  0  0  0  0  0  0  0  0  0  0  0
   -8.6599   -0.3960    1.9331 H   0  0  0  0  0  0  0  0  0  0  0  0
   -8.5810   -2.1817    1.7396 H   0  0  0  0  0  0  0  0  0  0  0  0
   -7.9685   -1.4460    3.2563 H   0  0  0  0  0  0  0  0  0  0  0  0
  1 23  1  0
  1 32  1  0
  2 32  2  0
  3 40  1  0
  3 45  1  0
  4 40  2  0
  5  9  1  0
  6  9  2  0
  7 13  1  0
  7 14  1  0
  7 17  1  0
  8 34  1  0
  8 36  1  0
  9 42  1  0
 10 11  1  0
 10 12  1  0
 10 15  1  0
 10 16  1  0
 11 13  1  0
 12 14  1  0
 15 19  2  0
 15 21  1  0
 16 20  2  0
 16 22  1  0
 17 18  1  0
 18 23  1  0
 19 24  1  0
 20 25  1  0
 21 26  2  0
 22 27  2  0
 24 28  2  0
 25 29  2  0
 26 28  1  0
 27 29  1  0
 30 31  1  0
 30 33  1  0
 30 35  1  0
 31 32  1  0
 31 34  2  0
 33 36  2  0
 33 40  1  0
 34 37  1  0
 35 38  2  0
 35 39  1  0
 36 41  1  0
 38 42  1  0
 39 43  2  0
 42 44  2  0
 43 44  1  0
  8 46  1  0
 11 47  1  0
 11 48  1  0
 12 49  1  0
 12 50  1  0
 13 51  1  0
 13 52  1  0
 14 53  1  0
 14 54  1  0
 17 55  1  0
 17 56  1  0
 18 57  1  0
 18 58  1  0
 19 59  1  0
 20 60  1  0
 21 61  1  0
 22 62  1  0
 23 63  1  0
 23 64  1  0
 24 65  1  0
 25 66  1  0
 26 67  1  0
 27 68  1  0
 28 69  1  0
 29 70  1  0
 30 71  1  1
 37 72  1  0
 37 73  1  0
 37 74  1  0
 38 75  1  0
 39 76  1  0
 41 77  1  0
 41 78  1  0
 41 79  1  0
 43 80  1  0
 44 81  1  0
 45 82  1  0
 45 83  1  0
 45 84  1  0
M  CHG  2   5  -1   9   1
M  END

