310265080
     RDKit          3D

 56 58  0  0  1  0  0  0  0  0999 V2000
   -1.9003    2.6091   -2.4701 O   0  0  0  0  0  0  0  0  0  0  0  0
    1.0934   -0.5194    0.8249 N   0  0  0  0  0  0  0  0  0  0  0  0
   -2.1796    0.9639   -0.9427 N   0  0  0  0  0  0  0  0  0  0  0  0
   -0.7306    1.0199   -0.7134 C   0  0  0  0  0  0  0  0  0  0  0  0
    0.0113   -0.1603   -1.2820 C   0  0  0  0  0  0  0  0  0  0  0  0
   -0.3853    1.3731    0.6892 C   0  0  0  0  0  0  0  0  0  0  0  0
    0.4140   -1.1328   -0.2199 C   0  0  0  0  0  0  0  0  0  0  0  0
    1.0300    0.8600    1.0360 C   0  0  0  0  0  0  0  0  0  0  0  0
    1.9238   -1.2913    1.6543 C   0  0  0  0  0  0  0  0  0  0  0  0
    3.1495   -1.7502    0.9152 C   0  0  0  0  0  0  0  0  0  0  0  0
   -2.9769    0.0321   -0.1978 C   0  0  0  0  0  0  0  0  0  0  0  0
   -2.7750    1.8410   -1.8595 C   0  0  0  0  0  0  0  0  0  0  0  0
    3.9485   -0.5945    0.4197 C   0  0  0  0  0  0  0  0  0  0  0  0
    4.0047   -2.6606    1.8127 C   0  0  0  0  0  0  0  0  0  0  0  0
   -4.1590    2.0308   -2.2330 C   0  0  0  0  0  0  0  0  0  0  0  0
   -3.5807    0.4228    0.9970 C   0  0  0  0  0  0  0  0  0  0  0  0
   -3.1880   -1.2706   -0.5863 C   0  0  0  0  0  0  0  0  0  0  0  0
    4.2878    0.4255    1.2855 C   0  0  0  0  0  0  0  0  0  0  0  0
    4.3696   -0.4893   -0.8890 C   0  0  0  0  0  0  0  0  0  0  0  0
   -5.2420    1.5041   -1.3764 C   0  0  0  0  0  0  0  0  0  0  0  0
   -4.3465   -0.4396    1.7501 C   0  0  0  0  0  0  0  0  0  0  0  0
   -3.9619   -2.1514    0.1717 C   0  0  0  0  0  0  0  0  0  0  0  0
    5.0167    1.5398    0.9335 C   0  0  0  0  0  0  0  0  0  0  0  0
    5.1131    0.6305   -1.2849 C   0  0  0  0  0  0  0  0  0  0  0  0
   -4.5506   -1.7404    1.3522 C   0  0  0  0  0  0  0  0  0  0  0  0
    5.4354    1.6354   -0.3926 C   0  0  0  0  0  0  0  0  0  0  0  0
   -0.3880    1.8886   -1.3792 H   0  0  0  0  0  0  0  0  0  0  0  0
   -0.5805   -0.6617   -2.0909 H   0  0  0  0  0  0  0  0  0  0  0  0
    0.9913    0.2115   -1.7300 H   0  0  0  0  0  0  0  0  0  0  0  0
   -0.3530    2.4824    0.7957 H   0  0  0  0  0  0  0  0  0  0  0  0
   -1.0705    0.8859    1.3893 H   0  0  0  0  0  0  0  0  0  0  0  0
   -0.4994   -1.7145    0.0779 H   0  0  0  0  0  0  0  0  0  0  0  0
    1.1319   -1.8943   -0.6847 H   0  0  0  0  0  0  0  0  0  0  0  0
    1.2578    1.2255    2.0309 H   0  0  0  0  0  0  0  0  0  0  0  0
    1.6942    1.3655    0.2989 H   0  0  0  0  0  0  0  0  0  0  0  0
    1.4317   -2.2322    2.0368 H   0  0  0  0  0  0  0  0  0  0  0  0
    2.1652   -0.7107    2.5636 H   0  0  0  0  0  0  0  0  0  0  0  0
    2.9167   -2.3839    0.0488 H   0  0  0  0  0  0  0  0  0  0  0  0
    4.3506   -2.1720    2.7200 H   0  0  0  0  0  0  0  0  0  0  0  0
    4.8785   -2.9943    1.2062 H   0  0  0  0  0  0  0  0  0  0  0  0
    3.3832   -3.5669    1.9699 H   0  0  0  0  0  0  0  0  0  0  0  0
   -4.4025    3.1145   -2.4482 H   0  0  0  0  0  0  0  0  0  0  0  0
   -4.3146    1.5463   -3.2576 H   0  0  0  0  0  0  0  0  0  0  0  0
   -3.4357    1.4376    1.3364 H   0  0  0  0  0  0  0  0  0  0  0  0
   -2.7241   -1.6069   -1.5157 H   0  0  0  0  0  0  0  0  0  0  0  0
    3.9434    0.3202    2.3232 H   0  0  0  0  0  0  0  0  0  0  0  0
    4.1169   -1.2835   -1.5931 H   0  0  0  0  0  0  0  0  0  0  0  0
   -5.3144    0.4138   -1.2904 H   0  0  0  0  0  0  0  0  0  0  0  0
   -5.3907    2.0627   -0.4174 H   0  0  0  0  0  0  0  0  0  0  0  0
   -6.2178    1.7656   -1.9353 H   0  0  0  0  0  0  0  0  0  0  0  0
   -4.8203   -0.1167    2.6957 H   0  0  0  0  0  0  0  0  0  0  0  0
   -4.1116   -3.1716   -0.1659 H   0  0  0  0  0  0  0  0  0  0  0  0
    5.2619    2.3304    1.6553 H   0  0  0  0  0  0  0  0  0  0  0  0
    5.4138    0.6619   -2.3121 H   0  0  0  0  0  0  0  0  0  0  0  0
   -5.1524   -2.3922    1.9628 H   0  0  0  0  0  0  0  0  0  0  0  0
    6.0169    2.5017   -0.7023 H   0  0  0  0  0  0  0  0  0  0  0  0
  1 12  2  0
  2  7  1  0
  2  8  1  0
  2  9  1  0
  3  4  1  0
  3 11  1  0
  3 12  1  0
  4  5  1  0
  4  6  1  0
  5  7  1  0
  6  8  1  0
  9 10  1  0
 10 13  1  0
 10 14  1  0
 11 16  2  0
 11 17  1  0
 12 15  1  0
 13 18  2  0
 13 19  1  0
 15 20  1  0
 16 21  1  0
 17 22  2  0
 18 23  1  0
 19 24  2  0
 21 25  2  0
 22 25  1  0
 23 26  2  0
 24 26  1  0
  4 27  1  0
  5 28  1  0
  5 29  1  0
  6 30  1  0
  6 31  1  0
  7 32  1  0
  7 33  1  0
  8 34  1  0
  8 35  1  0
  9 36  1  0
  9 37  1  0
 10 38  1  0
 14 39  1  0
 14 40  1  0
 14 41  1  0
 15 42  1  0
 15 43  1  0
 16 44  1  0
 17 45  1  0
 18 46  1  0
 19 47  1  0
 20 48  1  0
 20 49  1  0
 20 50  1  0
 21 51  1  0
 22 52  1  0
 23 53  1  0
 24 54  1  0
 25 55  1  0
 26 56  1  0
M  END

