310264993
     RDKit          3D

 99103  0  0  1  0  0  0  0  0999 V2000
   10.9051    0.0349   -2.5205 C   0  0  0  0  0  0  0  0  0  0  0  0
   10.7238    0.2254   -1.1504 O   0  0  0  0  0  0  0  0  0  0  0  0
   10.6185   -1.0082   -0.5589 C   0  0  0  0  0  0  0  0  0  0  0  0
   10.4206   -0.8988    0.9289 C   0  0  0  0  0  0  0  0  0  0  0  0
    9.4239   -0.3225    1.4695 O   0  0  0  0  0  0  0  0  0  0  0  0
    8.7886    0.7764    1.6031 C   0  0  0  0  0  0  0  0  0  0  0  0
    8.1479    1.4100    0.3755 C   0  0  0  0  0  0  0  0  0  0  0  0
    7.4860    2.6009    0.7849 O   0  0  0  0  0  0  0  0  0  0  0  0
    6.9175    3.2384   -0.2813 C   0  0  0  0  0  0  0  0  0  0  0  0
    5.8918    2.4374   -1.0228 C   0  0  0  0  0  0  0  0  0  0  0  0
    4.8558    2.0778   -0.1904 O   0  0  0  0  0  0  0  0  0  0  0  0
    3.8441    1.3732   -0.7803 C   0  0  0  0  0  0  0  0  0  0  0  0
    4.2860    0.0843   -1.4119 C   0  0  0  0  0  0  0  0  0  0  0  0
    4.8644   -0.8115   -0.5690 O   0  0  0  0  0  0  0  0  0  0  0  0
    4.1029   -1.2937    0.4645 C   0  0  0  0  0  0  0  0  0  0  0  0
    2.8878   -2.0551    0.0524 C   0  0  0  0  0  0  0  0  0  0  0  0
    2.1633   -2.5384    1.0869 O   0  0  0  0  0  0  0  0  0  0  0  0
    1.6144   -1.6488    1.9580 C   0  0  0  0  0  0  0  0  0  0  0  0
    0.6263   -0.6955    1.3398 C   0  0  0  0  0  0  0  0  0  0  0  0
   -0.4537   -1.3150    0.7533 O   0  0  0  0  0  0  0  0  0  0  0  0
   -1.2057   -2.1014    1.5949 C   0  0  0  0  0  0  0  0  0  0  0  0
   -2.3999   -2.7239    0.9524 C   0  0  0  0  0  0  0  0  0  0  0  0
   -3.3432   -1.9106    0.4283 O   0  0  0  0  0  0  0  0  0  0  0  0
   -3.0455   -1.0753   -0.5906 C   0  0  1  0  0  0  0  0  0  0  0  0
   -3.8042   -1.5768   -1.8271 C   0  0  0  0  0  0  0  0  0  0  0  0
   -5.2778   -1.4767   -1.5059 C   0  0  0  0  0  0  0  0  0  0  0  0
   -5.5992   -0.0006   -1.4085 C   0  0  1  0  0  0  0  0  0  0  0  0
   -7.0625    0.2600   -1.0870 C   0  0  1  0  0  0  0  0  0  0  0  0
   -7.5176   -0.2742    0.2155 C   0  0  0  0  0  0  0  0  0  0  0  0
   -6.4753   -0.2564    1.2620 C   0  0  0  0  0  0  0  0  0  0  0  0
   -6.6971   -0.6785    2.5589 C   0  0  0  0  0  0  0  0  0  0  0  0
   -5.6443   -0.6779    3.4841 C   0  0  0  0  0  0  0  0  0  0  0  0
   -4.3659   -0.2517    3.0972 C   0  0  0  0  0  0  0  0  0  0  0  0
   -4.1453    0.1687    1.8016 C   0  0  0  0  0  0  0  0  0  0  0  0
   -5.2202    0.1427    0.9619 C   0  0  0  0  0  0  0  0  0  0  0  0
   -4.8035    0.6820   -0.3572 C   0  0  1  0  0  0  0  0  0  0  0  0
   -3.3266    0.3620   -0.3340 C   0  0  1  0  0  0  0  0  0  0  0  0
   -3.0478    0.6412    1.0571 O   0  0  0  0  0  0  0  0  0  0  0  0
   -5.0462    2.1586   -0.4006 C   0  0  0  0  0  0  0  0  0  0  0  0
   -6.5016    2.4558   -0.3183 C   0  0  0  0  0  0  0  0  0  0  0  0
   -7.2948    1.6792   -1.2483 N   0  0  0  0  0  0  0  0  0  0  0  0
   -8.6705    2.0435   -1.0898 C   0  0  0  0  0  0  0  0  0  0  0  0
   -9.6001    1.2920   -1.9778 C   0  0  0  0  0  0  0  0  0  0  0  0
  -10.5473    0.5635   -1.4145 C   0  0  0  0  0  0  0  0  0  0  0  0
   -3.3205   -0.2477    4.0056 O   0  0  0  0  0  0  0  0  0  0  0  0
   -5.3271    0.5891   -2.6393 O   0  0  0  0  0  0  0  0  0  0  0  0
   11.8280   -0.5547   -2.6877 H   0  0  0  0  0  0  0  0  0  0  0  0
   10.0661   -0.5383   -2.9661 H   0  0  0  0  0  0  0  0  0  0  0  0
   11.0601    1.0128   -2.9965 H   0  0  0  0  0  0  0  0  0  0  0  0
    9.7560   -1.5862   -0.9752 H   0  0  0  0  0  0  0  0  0  0  0  0
   11.5489   -1.6172   -0.7106 H   0  0  0  0  0  0  0  0  0  0  0  0
   10.4506   -2.0093    1.2987 H   0  0  0  0  0  0  0  0  0  0  0  0
   11.4510   -0.4975    1.3075 H   0  0  0  0  0  0  0  0  0  0  0  0
    7.9672    0.6852    2.3997 H   0  0  0  0  0  0  0  0  0  0  0  0
    9.4229    1.6121    2.0925 H   0  0  0  0  0  0  0  0  0  0  0  0
    7.4210    0.6906    0.0050 H   0  0  0  0  0  0  0  0  0  0  0  0
    8.8537    1.7463   -0.3800 H   0  0  0  0  0  0  0  0  0  0  0  0
    7.7601    3.5051   -0.9791 H   0  0  0  0  0  0  0  0  0  0  0  0
    6.4879    4.2383   -0.0021 H   0  0  0  0  0  0  0  0  0  0  0  0
    5.5251    3.0771   -1.8686 H   0  0  0  0  0  0  0  0  0  0  0  0
    6.3835    1.5473   -1.4474 H   0  0  0  0  0  0  0  0  0  0  0  0
    3.3218    1.9661   -1.5647 H   0  0  0  0  0  0  0  0  0  0  0  0
    3.0903    1.1603    0.0213 H   0  0  0  0  0  0  0  0  0  0  0  0
    5.0373    0.3406   -2.2131 H   0  0  0  0  0  0  0  0  0  0  0  0
    3.3734   -0.3418   -1.9276 H   0  0  0  0  0  0  0  0  0  0  0  0
    4.7414   -1.9835    1.0591 H   0  0  0  0  0  0  0  0  0  0  0  0
    3.8390   -0.4730    1.1860 H   0  0  0  0  0  0  0  0  0  0  0  0
    3.2407   -2.9241   -0.5537 H   0  0  0  0  0  0  0  0  0  0  0  0
    2.2654   -1.4396   -0.6620 H   0  0  0  0  0  0  0  0  0  0  0  0
    2.4404   -1.0513    2.4364 H   0  0  0  0  0  0  0  0  0  0  0  0
    1.1442   -2.2346    2.7882 H   0  0  0  0  0  0  0  0  0  0  0  0
    0.2048   -0.0486    2.1647 H   0  0  0  0  0  0  0  0  0  0  0  0
    1.1331   -0.0575    0.5888 H   0  0  0  0  0  0  0  0  0  0  0  0
   -1.4467   -1.5582    2.5411 H   0  0  0  0  0  0  0  0  0  0  0  0
   -0.5043   -2.9237    1.9509 H   0  0  0  0  0  0  0  0  0  0  0  0
   -2.0276   -3.5040    0.2386 H   0  0  0  0  0  0  0  0  0  0  0  0
   -2.9177   -3.3470    1.7467 H   0  0  0  0  0  0  0  0  0  0  0  0
   -1.9654   -1.1615   -0.9003 H   0  0  0  0  0  0  0  0  0  0  0  0
   -3.5998   -0.8699   -2.6565 H   0  0  0  0  0  0  0  0  0  0  0  0
   -3.4721   -2.5877   -2.0518 H   0  0  0  0  0  0  0  0  0  0  0  0
   -5.5539   -1.9711   -0.5647 H   0  0  0  0  0  0  0  0  0  0  0  0
   -5.8758   -1.8745   -2.3585 H   0  0  0  0  0  0  0  0  0  0  0  0
   -7.6445   -0.2442   -1.9070 H   0  0  0  0  0  0  0  0  0  0  0  0
   -8.4473    0.2357    0.5404 H   0  0  0  0  0  0  0  0  0  0  0  0
   -7.7651   -1.3576    0.0652 H   0  0  0  0  0  0  0  0  0  0  0  0
   -7.6911   -1.0099    2.8557 H   0  0  0  0  0  0  0  0  0  0  0  0
   -5.8539   -1.0101    4.4808 H   0  0  0  0  0  0  0  0  0  0  0  0
   -2.7912    1.0783   -0.9716 H   0  0  0  0  0  0  0  0  0  0  0  0
   -4.5764    2.6162   -1.3007 H   0  0  0  0  0  0  0  0  0  0  0  0
   -4.5527    2.6253    0.4783 H   0  0  0  0  0  0  0  0  0  0  0  0
   -6.8834    2.3833    0.7098 H   0  0  0  0  0  0  0  0  0  0  0  0
   -6.6346    3.5307   -0.6311 H   0  0  0  0  0  0  0  0  0  0  0  0
   -8.7572    3.1318   -1.4176 H   0  0  0  0  0  0  0  0  0  0  0  0
   -9.0059    2.0727   -0.0368 H   0  0  0  0  0  0  0  0  0  0  0  0
   -9.5519    1.3036   -3.0415 H   0  0  0  0  0  0  0  0  0  0  0  0
  -11.2694   -0.0172   -1.9844 H   0  0  0  0  0  0  0  0  0  0  0  0
  -10.6592    0.5027   -0.3393 H   0  0  0  0  0  0  0  0  0  0  0  0
   -3.5131   -0.5605    4.9460 H   0  0  0  0  0  0  0  0  0  0  0  0
   -5.6790    0.0411   -3.3576 H   0  0  0  0  0  0  0  0  0  0  0  0
  1  2  1  0
  2  3  1  0
  3  4  1  0
  4  5  1  0
  5  6  1  0
  6  7  1  0
  7  8  1  0
  8  9  1  0
  9 10  1  0
 10 11  1  0
 11 12  1  0
 12 13  1  0
 13 14  1  0
 14 15  1  0
 15 16  1  0
 16 17  1  0
 17 18  1  0
 18 19  1  0
 19 20  1  0
 20 21  1  0
 21 22  1  0
 22 23  1  0
 24 23  1  0
 24 25  1  0
 25 26  1  0
 26 27  1  0
 27 28  1  0
 28 29  1  0
 29 30  1  0
 30 31  2  0
 31 32  1  0
 32 33  2  0
 33 34  1  0
 34 35  2  0
 30 35  1  0
 36 35  1  0
 27 36  1  0
 36 37  1  0
 24 37  1  0
 37 38  1  0
 34 38  1  0
 36 39  1  1
 39 40  1  0
 40 41  1  0
 28 41  1  0
 41 42  1  0
 42 43  1  0
 43 44  2  3
 33 45  1  0
 27 46  1  6
  1 47  1  0
  1 48  1  0
  1 49  1  0
  3 50  1  0
  3 51  1  0
  4 52  1  0
  4 53  1  0
  6 54  1  0
  6 55  1  0
  7 56  1  0
  7 57  1  0
  9 58  1  0
  9 59  1  0
 10 60  1  0
 10 61  1  0
 12 62  1  0
 12 63  1  0
 13 64  1  0
 13 65  1  0
 15 66  1  0
 15 67  1  0
 16 68  1  0
 16 69  1  0
 18 70  1  0
 18 71  1  0
 19 72  1  0
 19 73  1  0
 21 74  1  0
 21 75  1  0
 22 76  1  0
 22 77  1  0
 24 78  1  6
 25 79  1  0
 25 80  1  0
 26 81  1  0
 26 82  1  0
 28 83  1  6
 29 84  1  0
 29 85  1  0
 31 86  1  0
 32 87  1  0
 37 88  1  6
 39 89  1  0
 39 90  1  0
 40 91  1  0
 40 92  1  0
 42 93  1  0
 42 94  1  0
 43 95  1  0
 44 96  1  0
 44 97  1  0
 45 98  1  0
 46 99  1  0
M  END

