310265132
     RDKit          3D

 65 68  0  0  1  0  0  0  0  0999 V2000
    0.1162    0.6090    0.7777 O   0  0  0  0  0  0  0  0  0  0  0  0
   -5.9536   -1.9404   -0.0506 O   0  0  0  0  0  0  0  0  0  0  0  0
    0.0957    0.8530    3.0093 O   0  0  0  0  0  0  0  0  0  0  0  0
   -4.1453   -1.3390   -1.2273 O   0  0  0  0  0  0  0  0  0  0  0  0
    0.6165   -2.0366   -4.1027 O   0  0  0  0  0  1  0  0  0  0  0  0
   -0.4178   -0.0958   -3.7085 O   0  0  0  0  0  0  0  0  0  0  0  0
   -3.7742   -0.6628    3.4517 N   0  0  0  0  0  0  0  0  0  0  0  0
   -0.1453   -1.2333   -3.2826 N   0  0  0  0  0  4  0  0  0  0  0  0
    2.6961    2.1973   -1.0849 N   0  0  0  0  0  0  0  0  0  0  0  0
   -2.5853   -0.4705    0.8858 C   0  0  2  0  0  0  0  0  0  0  0  0
   -1.8988   -0.0579    2.0943 C   0  0  0  0  0  0  0  0  0  0  0  0
   -3.9342   -0.9930    1.0851 C   0  0  0  0  0  0  0  0  0  0  0  0
   -1.7683   -1.3402    0.0052 C   0  0  0  0  0  0  0  0  0  0  0  0
   -2.4562   -0.1506    3.2742 C   0  0  0  0  0  0  0  0  0  0  0  0
   -4.4610   -1.0720    2.2756 C   0  0  0  0  0  0  0  0  0  0  0  0
   -0.5108    0.4929    1.9966 C   0  0  0  0  0  0  0  0  0  0  0  0
   -4.7047   -1.4401   -0.1097 C   0  0  0  0  0  0  0  0  0  0  0  0
   -1.3442   -0.8880   -1.2107 C   0  0  0  0  0  0  0  0  0  0  0  0
   -1.4600   -2.5925    0.4511 C   0  0  0  0  0  0  0  0  0  0  0  0
   -0.5783   -1.7152   -2.0239 C   0  0  0  0  0  0  0  0  0  0  0  0
    1.4067    1.1086    0.5691 C   0  0  2  0  0  0  0  0  0  0  0  0
   -1.7232    0.2858    4.5318 C   0  0  0  0  0  0  0  0  0  0  0  0
   -5.8607   -1.6241    2.3765 C   0  0  0  0  0  0  0  0  0  0  0  0
   -0.6893   -3.4129   -0.3776 C   0  0  0  0  0  0  0  0  0  0  0  0
   -0.2430   -2.9871   -1.6150 C   0  0  0  0  0  0  0  0  0  0  0  0
    1.4688    2.2995   -0.3190 C   0  0  0  0  0  0  0  0  0  0  0  0
    2.3654    0.1331   -0.0322 C   0  0  0  0  0  0  0  0  0  0  0  0
    2.8143    0.7747   -1.3248 C   0  0  0  0  0  0  0  0  0  0  0  0
    3.8407    2.6421   -0.3538 C   0  0  0  0  0  0  0  0  0  0  0  0
   -6.6497   -2.3546   -1.2223 C   0  0  0  0  0  0  0  0  0  0  0  0
    5.1023    2.5336   -1.1494 C   0  0  0  0  0  0  0  0  0  0  0  0
    5.3837    3.4870   -2.0995 C   0  0  0  0  0  0  0  0  0  0  0  0
    5.9980    1.5104   -0.9581 C   0  0  0  0  0  0  0  0  0  0  0  0
    6.5371    3.3939   -2.8232 C   0  0  0  0  0  0  0  0  0  0  0  0
    7.1537    1.4400   -1.7014 C   0  0  0  0  0  0  0  0  0  0  0  0
    7.4705    2.3808   -2.6658 C   0  0  0  0  0  0  0  0  0  0  0  0
   -4.2231   -0.7374    4.4028 H   0  0  0  0  0  0  0  0  0  0  0  0
   -2.7071    0.5059    0.2821 H   0  0  0  0  0  0  0  0  0  0  0  0
   -1.5712    0.1100   -1.6033 H   0  0  0  0  0  0  0  0  0  0  0  0
   -1.7677   -3.0072    1.4047 H   0  0  0  0  0  0  0  0  0  0  0  0
    1.8074    1.3877    1.5750 H   0  0  0  0  0  0  0  0  0  0  0  0
   -0.8683   -0.4047    4.6299 H   0  0  0  0  0  0  0  0  0  0  0  0
   -1.5095    1.3483    4.5249 H   0  0  0  0  0  0  0  0  0  0  0  0
   -2.3808    0.0735    5.4093 H   0  0  0  0  0  0  0  0  0  0  0  0
   -6.5584   -0.9314    1.8918 H   0  0  0  0  0  0  0  0  0  0  0  0
   -6.1209   -1.5389    3.4809 H   0  0  0  0  0  0  0  0  0  0  0  0
   -5.9321   -2.6725    2.0992 H   0  0  0  0  0  0  0  0  0  0  0  0
   -0.4138   -4.4143   -0.0777 H   0  0  0  0  0  0  0  0  0  0  0  0
    0.3640   -3.6389   -2.2630 H   0  0  0  0  0  0  0  0  0  0  0  0
    1.5552    3.2440    0.2846 H   0  0  0  0  0  0  0  0  0  0  0  0
    0.6198    2.3657   -1.0366 H   0  0  0  0  0  0  0  0  0  0  0  0
    3.2849   -0.0251    0.5760 H   0  0  0  0  0  0  0  0  0  0  0  0
    1.9357   -0.8751   -0.1910 H   0  0  0  0  0  0  0  0  0  0  0  0
    2.1987    0.4457   -2.1883 H   0  0  0  0  0  0  0  0  0  0  0  0
    3.8511    0.4864   -1.5839 H   0  0  0  0  0  0  0  0  0  0  0  0
    4.0229    2.0676    0.5869 H   0  0  0  0  0  0  0  0  0  0  0  0
    3.7080    3.7036   -0.0041 H   0  0  0  0  0  0  0  0  0  0  0  0
   -7.2236   -3.3060   -1.0331 H   0  0  0  0  0  0  0  0  0  0  0  0
   -5.9531   -2.5872   -2.0528 H   0  0  0  0  0  0  0  0  0  0  0  0
   -7.3215   -1.5469   -1.5871 H   0  0  0  0  0  0  0  0  0  0  0  0
    4.6784    4.3128   -2.2673 H   0  0  0  0  0  0  0  0  0  0  0  0
    5.7831    0.7560   -0.2093 H   0  0  0  0  0  0  0  0  0  0  0  0
    6.7248    4.1724   -3.5702 H   0  0  0  0  0  0  0  0  0  0  0  0
    7.8827    0.6263   -1.5613 H   0  0  0  0  0  0  0  0  0  0  0  0
    8.3725    2.3444   -3.2600 H   0  0  0  0  0  0  0  0  0  0  0  0
  1 16  1  0
 21  1  1  0
  2 17  1  0
  2 30  1  0
  3 16  2  0
  4 17  2  0
  5  8  1  0
  6  8  2  0
  7 14  1  0
  7 15  1  0
  8 20  1  0
  9 26  1  0
  9 28  1  0
  9 29  1  0
 10 11  1  0
 10 12  1  0
 10 13  1  0
 11 14  2  0
 11 16  1  0
 12 15  2  0
 12 17  1  0
 13 18  2  0
 13 19  1  0
 14 22  1  0
 15 23  1  0
 18 20  1  0
 19 24  2  0
 20 25  2  0
 21 26  1  0
 21 27  1  0
 24 25  1  0
 27 28  1  0
 29 31  1  0
 31 32  2  0
 31 33  1  0
 32 34  1  0
 33 35  2  0
 34 36  2  0
 35 36  1  0
  7 37  1  0
 10 38  1  6
 18 39  1  0
 19 40  1  0
 21 41  1  1
 22 42  1  0
 22 43  1  0
 22 44  1  0
 23 45  1  0
 23 46  1  0
 23 47  1  0
 24 48  1  0
 25 49  1  0
 26 50  1  0
 26 51  1  0
 27 52  1  0
 27 53  1  0
 28 54  1  0
 28 55  1  0
 29 56  1  0
 29 57  1  0
 30 58  1  0
 30 59  1  0
 30 60  1  0
 32 61  1  0
 33 62  1  0
 34 63  1  0
 35 64  1  0
 36 65  1  0
M  CHG  2   5  -1   8   1
M  END

