310265016
     RDKit          3D

 57 58  0  0  1  0  0  0  0  0999 V2000
   -4.0072   -2.1095    1.3066 C   0  0  0  0  0  0  0  0  0  0  0  0
   -3.8489   -1.8418   -0.1501 C   0  0  0  0  0  0  0  0  0  0  0  0
   -2.7186   -0.8158   -0.4032 C   0  0  0  0  0  0  0  0  0  0  0  0
   -1.4644   -1.4888    0.1599 C   0  0  0  0  0  0  0  0  0  0  0  0
   -0.2907   -0.7585   -0.0507 O   0  0  0  0  0  0  0  0  0  0  0  0
    0.9318   -1.2350    0.4147 C   0  0  0  0  0  0  0  0  0  0  0  0
    0.9155   -2.3211    1.0181 O   0  0  0  0  0  0  0  0  0  0  0  0
    2.1823   -0.5334    0.2248 C   0  0  0  0  0  0  0  0  0  0  0  0
    2.3073    0.6857   -0.4353 C   0  0  0  0  0  0  0  0  0  0  0  0
    3.5505    1.2664   -0.5721 C   0  0  0  0  0  0  0  0  0  0  0  0
    4.6825    0.6793   -0.0745 C   0  0  0  0  0  0  0  0  0  0  0  0
    4.5936   -0.5396    0.5919 C   0  0  0  0  0  0  0  0  0  0  0  0
    3.3511   -1.1113    0.7230 C   0  0  0  0  0  0  0  0  0  0  0  0
    5.7122   -1.1654    1.1096 O   0  0  0  0  0  0  0  0  0  0  0  0
    5.6523   -2.3980    1.7908 C   0  0  0  0  0  0  0  0  0  0  0  0
    5.9123    1.2542   -0.2110 O   0  0  0  0  0  0  0  0  0  0  0  0
    6.3998    2.1574    0.7453 C   0  0  0  0  0  0  0  0  0  0  0  0
    3.6411    2.4766   -1.2326 O   0  0  0  0  0  0  0  0  0  0  0  0
    2.4900    3.0924   -1.7529 C   0  0  0  0  0  0  0  0  0  0  0  0
   -3.0872    0.4075    0.3105 C   0  0  0  0  0  0  0  0  0  0  0  0
   -2.2268    1.0305    1.2082 C   0  0  0  0  0  0  0  0  0  0  0  0
   -2.6525    2.1600    1.8423 C   0  0  0  0  0  0  0  0  0  0  0  0
   -3.9005    2.7046    1.6259 C   0  0  0  0  0  0  0  0  0  0  0  0
   -4.7616    2.1074    0.7488 C   0  0  0  0  0  0  0  0  0  0  0  0
   -4.3484    0.9577    0.0934 C   0  0  0  0  0  0  0  0  0  0  0  0
   -2.4922   -0.5933   -1.7765 N   0  0  0  0  0  0  0  0  0  0  0  0
   -1.9907   -1.7481   -2.4969 C   0  0  0  0  0  0  0  0  0  0  0  0
   -3.4956    0.1033   -2.5290 C   0  0  0  0  0  0  0  0  0  0  0  0
   -5.0524   -2.5384    1.4289 H   0  0  0  0  0  0  0  0  0  0  0  0
   -3.3525   -2.8837    1.7185 H   0  0  0  0  0  0  0  0  0  0  0  0
   -4.0406   -1.1608    1.8746 H   0  0  0  0  0  0  0  0  0  0  0  0
   -4.7700   -1.3906   -0.5369 H   0  0  0  0  0  0  0  0  0  0  0  0
   -3.6275   -2.8029   -0.6895 H   0  0  0  0  0  0  0  0  0  0  0  0
   -1.5526   -1.7122    1.2346 H   0  0  0  0  0  0  0  0  0  0  0  0
   -1.4407   -2.4975   -0.3484 H   0  0  0  0  0  0  0  0  0  0  0  0
    1.3836    1.1111   -0.8110 H   0  0  0  0  0  0  0  0  0  0  0  0
    3.2629   -2.0652    1.2389 H   0  0  0  0  0  0  0  0  0  0  0  0
    6.6327   -2.6223    2.2353 H   0  0  0  0  0  0  0  0  0  0  0  0
    4.8869   -2.3600    2.5755 H   0  0  0  0  0  0  0  0  0  0  0  0
    5.4226   -3.2612    1.0974 H   0  0  0  0  0  0  0  0  0  0  0  0
    7.5016    1.9763    0.8237 H   0  0  0  0  0  0  0  0  0  0  0  0
    6.2428    3.2210    0.4275 H   0  0  0  0  0  0  0  0  0  0  0  0
    5.9112    1.9469    1.7123 H   0  0  0  0  0  0  0  0  0  0  0  0
    2.6922    4.0288   -2.2797 H   0  0  0  0  0  0  0  0  0  0  0  0
    1.9792    2.3770   -2.4517 H   0  0  0  0  0  0  0  0  0  0  0  0
    1.8035    3.2942   -0.8958 H   0  0  0  0  0  0  0  0  0  0  0  0
   -1.2762    0.6177    1.3835 H   0  0  0  0  0  0  0  0  0  0  0  0
   -1.9783    2.6595    2.5488 H   0  0  0  0  0  0  0  0  0  0  0  0
   -4.2003    3.6203    2.1652 H   0  0  0  0  0  0  0  0  0  0  0  0
   -5.7497    2.5100    0.5558 H   0  0  0  0  0  0  0  0  0  0  0  0
   -5.0882    0.5389   -0.5755 H   0  0  0  0  0  0  0  0  0  0  0  0
   -2.2051   -1.5496   -3.5822 H   0  0  0  0  0  0  0  0  0  0  0  0
   -0.8891   -1.7076   -2.3886 H   0  0  0  0  0  0  0  0  0  0  0  0
   -2.4563   -2.6956   -2.2733 H   0  0  0  0  0  0  0  0  0  0  0  0
   -3.0889    0.1506   -3.5877 H   0  0  0  0  0  0  0  0  0  0  0  0
   -3.5273    1.1543   -2.2087 H   0  0  0  0  0  0  0  0  0  0  0  0
   -4.4604   -0.3826   -2.6205 H   0  0  0  0  0  0  0  0  0  0  0  0
  1  2  1  0
  2  3  1  0
  3  4  1  0
  4  5  1  0
  5  6  1  0
  6  7  2  0
  6  8  1  0
  8  9  2  0
  9 10  1  0
 10 11  2  0
 11 12  1  0
 12 13  2  0
  8 13  1  0
 12 14  1  0
 14 15  1  0
 11 16  1  0
 16 17  1  0
 10 18  1  0
 18 19  1  0
  3 20  1  0
 20 21  2  0
 21 22  1  0
 22 23  2  0
 23 24  1  0
 24 25  2  0
 20 25  1  0
  3 26  1  0
 26 27  1  0
 26 28  1  0
  1 29  1  0
  1 30  1  0
  1 31  1  0
  2 32  1  0
  2 33  1  0
  4 34  1  0
  4 35  1  0
  9 36  1  0
 13 37  1  0
 15 38  1  0
 15 39  1  0
 15 40  1  0
 17 41  1  0
 17 42  1  0
 17 43  1  0
 19 44  1  0
 19 45  1  0
 19 46  1  0
 21 47  1  0
 22 48  1  0
 23 49  1  0
 24 50  1  0
 25 51  1  0
 27 52  1  0
 27 53  1  0
 27 54  1  0
 28 55  1  0
 28 56  1  0
 28 57  1  0
M  END

