310265143
     RDKit          3D

 69 70  0  0  0  0  0  0  0  0999 V2000
    3.8706   -1.6662    0.3827 O   0  0  0  0  0  0  0  0  0  0  0  0
   -3.4876   -1.0513   -0.9248 O   0  0  0  0  0  0  0  0  0  0  0  0
    2.3316   -1.3789    1.9749 O   0  0  0  0  0  0  0  0  0  0  0  0
   -2.5699   -0.9533    1.1164 O   0  0  0  0  0  0  0  0  0  0  0  0
    6.5590   -0.9100   -0.4323 O   0  0  0  0  0  0  0  0  0  0  0  0
   -7.0587   -0.7628   -1.1801 O   0  0  0  0  0  0  0  0  0  0  0  0
    0.6632    3.6777   -0.6635 O   0  0  0  0  0  1  0  0  0  0  0  0
    0.4785    4.6477    1.3374 O   0  0  0  0  0  0  0  0  0  0  0  0
    0.5505   -1.5659   -2.4249 N   0  0  0  0  0  0  0  0  0  0  0  0
    0.4705    3.5938    0.6759 N   0  0  0  0  0  4  0  0  0  0  0  0
    0.0567   -1.2807    0.3725 C   0  0  0  0  0  0  0  0  0  0  0  0
    1.4165   -1.4624   -0.1688 C   0  0  0  0  0  0  0  0  0  0  0  0
   -0.9937   -1.2615   -0.6401 C   0  0  0  0  0  0  0  0  0  0  0  0
    0.0611   -0.0309    1.1977 C   0  0  0  0  0  0  0  0  0  0  0  0
    1.6089   -1.5905   -1.4641 C   0  0  0  0  0  0  0  0  0  0  0  0
   -0.7717   -1.3918   -1.9232 C   0  0  0  0  0  0  0  0  0  0  0  0
    2.5788   -1.5048    0.7494 C   0  0  0  0  0  0  0  0  0  0  0  0
   -2.3724   -1.0857   -0.1421 C   0  0  0  0  0  0  0  0  0  0  0  0
    0.2584    1.1760    0.5795 C   0  0  0  0  0  0  0  0  0  0  0  0
   -0.1318   -0.1062    2.5490 C   0  0  0  0  0  0  0  0  0  0  0  0
    3.0254   -1.7690   -1.9246 C   0  0  0  0  0  0  0  0  0  0  0  0
   -1.9365   -1.3574   -2.8846 C   0  0  0  0  0  0  0  0  0  0  0  0
    0.2625    2.3394    1.3352 C   0  0  0  0  0  0  0  0  0  0  0  0
   -0.1241    1.0775    3.2923 C   0  0  0  0  0  0  0  0  0  0  0  0
    0.0718    2.3057    2.6984 C   0  0  0  0  0  0  0  0  0  0  0  0
    4.9814   -1.7110    1.2313 C   0  0  0  0  0  0  0  0  0  0  0  0
   -4.7971   -0.8740   -0.3624 C   0  0  0  0  0  0  0  0  0  0  0  0
    6.2771   -1.8987    0.4751 C   0  0  0  0  0  0  0  0  0  0  0  0
   -5.7948   -0.9062   -1.4966 C   0  0  0  0  0  0  0  0  0  0  0  0
    6.6599    0.3094    0.2167 C   0  0  0  0  0  0  0  0  0  0  0  0
   -7.7283    0.2175   -0.6522 C   0  0  0  0  0  0  0  0  0  0  0  0
    6.9766    1.4484   -0.7310 C   0  0  0  0  0  0  0  0  0  0  0  0
   -7.4779    0.8143    0.6688 C   0  0  0  0  0  0  0  0  0  0  0  0
    7.0510    2.7013    0.1526 C   0  0  0  0  0  0  0  0  0  0  0  0
   -8.5720    1.9084    0.8285 C   0  0  0  0  0  0  0  0  0  0  0  0
    0.7260   -1.6680   -3.4280 H   0  0  0  0  0  0  0  0  0  0  0  0
   -0.0956   -2.1225    1.1114 H   0  0  0  0  0  0  0  0  0  0  0  0
    0.4055    1.1751   -0.4922 H   0  0  0  0  0  0  0  0  0  0  0  0
   -0.2916   -1.0581    3.0639 H   0  0  0  0  0  0  0  0  0  0  0  0
    3.6337   -0.8730   -1.7584 H   0  0  0  0  0  0  0  0  0  0  0  0
    2.9621   -1.8468   -3.0547 H   0  0  0  0  0  0  0  0  0  0  0  0
    3.4544   -2.7233   -1.6146 H   0  0  0  0  0  0  0  0  0  0  0  0
   -2.6223   -2.1954   -2.7086 H   0  0  0  0  0  0  0  0  0  0  0  0
   -1.5298   -1.5346   -3.9166 H   0  0  0  0  0  0  0  0  0  0  0  0
   -2.4538   -0.3987   -2.8631 H   0  0  0  0  0  0  0  0  0  0  0  0
   -0.2728    1.0721    4.3650 H   0  0  0  0  0  0  0  0  0  0  0  0
    0.0799    3.2429    3.2719 H   0  0  0  0  0  0  0  0  0  0  0  0
    4.8449   -2.6556    1.8424 H   0  0  0  0  0  0  0  0  0  0  0  0
    5.0731   -0.9146    1.9623 H   0  0  0  0  0  0  0  0  0  0  0  0
   -4.9406   -1.7664    0.3066 H   0  0  0  0  0  0  0  0  0  0  0  0
   -4.8327    0.0005    0.2767 H   0  0  0  0  0  0  0  0  0  0  0  0
    6.2237   -2.8647   -0.1111 H   0  0  0  0  0  0  0  0  0  0  0  0
    7.0940   -2.0665    1.2049 H   0  0  0  0  0  0  0  0  0  0  0  0
   -5.6672   -1.9650   -1.9168 H   0  0  0  0  0  0  0  0  0  0  0  0
   -5.4213   -0.2960   -2.3675 H   0  0  0  0  0  0  0  0  0  0  0  0
    7.4052    0.3281    1.0296 H   0  0  0  0  0  0  0  0  0  0  0  0
    5.6670    0.5164    0.6716 H   0  0  0  0  0  0  0  0  0  0  0  0
   -8.8404   -0.0664   -0.6563 H   0  0  0  0  0  0  0  0  0  0  0  0
   -7.7517    1.0922   -1.3969 H   0  0  0  0  0  0  0  0  0  0  0  0
    7.9874    1.3429   -1.1732 H   0  0  0  0  0  0  0  0  0  0  0  0
    6.2370    1.5852   -1.5198 H   0  0  0  0  0  0  0  0  0  0  0  0
   -6.5497    1.4073    0.7920 H   0  0  0  0  0  0  0  0  0  0  0  0
   -7.6388    0.1537    1.5432 H   0  0  0  0  0  0  0  0  0  0  0  0
    6.7511    3.5633   -0.4701 H   0  0  0  0  0  0  0  0  0  0  0  0
    8.0536    2.8289    0.5686 H   0  0  0  0  0  0  0  0  0  0  0  0
    6.2935    2.5969    0.9733 H   0  0  0  0  0  0  0  0  0  0  0  0
   -9.5284    1.4635    0.5121 H   0  0  0  0  0  0  0  0  0  0  0  0
   -8.5947    2.1783    1.9083 H   0  0  0  0  0  0  0  0  0  0  0  0
   -8.2540    2.7703    0.2253 H   0  0  0  0  0  0  0  0  0  0  0  0
  1 17  1  0
  1 26  1  0
  2 18  1  0
  2 27  1  0
  3 17  2  0
  4 18  2  0
  5 28  1  0
  5 30  1  0
  6 29  1  0
  6 31  1  0
  7 10  1  0
  8 10  2  0
  9 15  1  0
  9 16  1  0
 10 23  1  0
 11 12  1  0
 11 13  1  0
 11 14  1  0
 12 15  2  0
 12 17  1  0
 13 16  2  0
 13 18  1  0
 14 19  2  0
 14 20  1  0
 15 21  1  0
 16 22  1  0
 19 23  1  0
 20 24  2  0
 23 25  2  0
 24 25  1  0
 26 28  1  0
 27 29  1  0
 30 32  1  0
 31 33  1  0
 32 34  1  0
 33 35  1  0
  9 36  1  0
 11 37  1  0
 19 38  1  0
 20 39  1  0
 21 40  1  0
 21 41  1  0
 21 42  1  0
 22 43  1  0
 22 44  1  0
 22 45  1  0
 24 46  1  0
 25 47  1  0
 26 48  1  0
 26 49  1  0
 27 50  1  0
 27 51  1  0
 28 52  1  0
 28 53  1  0
 29 54  1  0
 29 55  1  0
 30 56  1  0
 30 57  1  0
 31 58  1  0
 31 59  1  0
 32 60  1  0
 32 61  1  0
 33 62  1  0
 33 63  1  0
 34 64  1  0
 34 65  1  0
 34 66  1  0
 35 67  1  0
 35 68  1  0
 35 69  1  0
M  CHG  2   7  -1  10   1
M  END

