310265146
     RDKit          3D

 18 18  0  0  0  0  0  0  0  0999 V2000
   -3.1300    0.8412    1.8421 O   0  0  0  0  0  0  0  0  0  0  0  0
    2.7823   -0.5461    0.2072 N   0  0  0  0  0  0  0  0  0  0  0  0
    0.8514    0.1035    1.5205 N   0  0  0  0  0  0  0  0  0  0  0  0
   -0.4310    0.3237    1.6707 N   0  0  0  0  0  0  0  0  0  0  0  0
    3.6771    0.4906    0.0087 N   0  0  0  0  0  0  0  0  0  0  0  0
   -3.5827    0.1326   -0.2931 N   0  0  0  0  0  0  0  0  0  0  0  0
    1.3942   -0.2984    0.3411 C   0  0  0  0  0  0  0  0  0  0  0  0
   -1.2720    0.1511    0.6225 C   0  0  0  0  0  0  0  0  0  0  0  0
    0.5914   -0.4915   -0.7628 C   0  0  0  0  0  0  0  0  0  0  0  0
   -0.7760   -0.2552   -0.5960 C   0  0  0  0  0  0  0  0  0  0  0  0
   -2.6953    0.3928    0.7611 C   0  0  0  0  0  0  0  0  0  0  0  0
    3.1184   -1.5255    0.2556 H   0  0  0  0  0  0  0  0  0  0  0  0
    4.5357    0.4037    0.6208 H   0  0  0  0  0  0  0  0  0  0  0  0
    3.2727    1.4333    0.0424 H   0  0  0  0  0  0  0  0  0  0  0  0
   -4.6320    0.2930   -0.1752 H   0  0  0  0  0  0  0  0  0  0  0  0
   -3.3255   -0.2222   -1.2284 H   0  0  0  0  0  0  0  0  0  0  0  0
    0.9969   -0.8138   -1.7237 H   0  0  0  0  0  0  0  0  0  0  0  0
   -1.3755   -0.4129   -1.4779 H   0  0  0  0  0  0  0  0  0  0  0  0
  1 11  2  0
  2  5  1  0
  2  7  1  0
  3  4  2  0
  3  7  1  0
  4  8  1  0
  6 11  1  0
  7  9  2  0
  8 10  2  0
  8 11  1  0
  9 10  1  0
  2 12  1  0
  5 13  1  0
  5 14  1  0
  6 15  1  0
  6 16  1  0
  9 17  1  0
 10 18  1  0
M  END

