310264991
     RDKit          3D

 48 52  0  0  1  0  0  0  0  0999 V2000
   -1.9732    0.3536    0.1050 C   0  0  0  0  0  0  0  0  0  0  0  0
   -3.0711   -0.3342   -0.1971 N   0  0  0  0  0  0  0  0  0  0  0  0
   -0.7226   -0.1437   -0.1207 C   0  0  0  0  0  0  0  0  0  0  0  0
   -2.1371    1.6383    0.6632 C   0  0  0  0  0  0  0  0  0  0  0  0
   -2.9888   -1.6862   -0.7138 C   0  0  0  0  0  0  0  0  0  0  0  0
   -4.2953    0.1982    0.0236 C   0  0  0  0  0  0  0  0  0  0  0  0
    0.4061    0.6285    0.2092 C   0  0  0  0  0  0  0  0  0  0  0  0
   -3.3867    2.1708    0.8856 C   0  0  0  0  0  0  0  0  0  0  0  0
   -1.0232    2.4027    0.9888 C   0  0  0  0  0  0  0  0  0  0  0  0
   -2.9738   -2.8781    0.1507 C   0  0  0  0  0  0  0  0  0  0  0  0
   -4.2720   -2.5051   -0.4142 C   0  0  0  0  0  0  0  0  0  0  0  0
   -4.4969    1.4448    0.5620 C   0  0  0  0  0  0  0  0  0  0  0  0
    1.7040    0.0859   -0.0336 N   0  0  0  0  0  0  0  0  0  0  0  0
    0.2145    1.8680    0.7496 C   0  0  0  0  0  0  0  0  0  0  0  0
   -3.4925    3.3226    1.3855 O   0  0  0  0  0  0  0  0  0  0  0  0
   -5.8468    1.9786    0.7819 C   0  0  0  0  0  0  0  0  0  0  0  0
    2.4781    0.2258   -1.2503 C   0  0  0  0  0  0  0  0  0  0  0  0
    2.4933   -0.7054    0.8875 C   0  0  0  0  0  0  0  0  0  0  0  0
    1.2847    2.6367    1.0785 F   0  0  0  0  0  0  0  0  0  0  0  0
   -6.9472    1.2241    0.4462 O   0  0  0  0  0  0  0  0  0  0  0  0
   -5.9857    3.1074    1.2694 O   0  0  0  0  0  0  0  0  0  0  0  0
    3.8729    0.3955   -0.6813 C   0  0  1  0  0  0  0  0  0  0  0  0
    3.8841   -0.7589    0.3311 C   0  0  1  0  0  0  0  0  0  0  0  0
    4.8711    0.1493   -1.5805 O   0  0  0  0  0  0  0  0  0  0  0  0
    4.9119   -0.4531    1.2765 N   0  0  0  0  0  0  0  0  0  0  0  0
    6.0247   -0.2431   -0.9089 C   0  0  0  0  0  0  0  0  0  0  0  0
    6.0101    0.1614    0.5502 C   0  0  0  0  0  0  0  0  0  0  0  0
   -0.4985   -1.4192   -0.7466 C   0  0  0  0  0  0  0  0  0  0  0  0
   -0.2733   -2.4271   -1.2668 N   0  0  0  0  0  0  0  0  0  0  0  0
   -2.8164   -1.6899   -1.8100 H   0  0  0  0  0  0  0  0  0  0  0  0
   -5.1906   -0.3474   -0.2409 H   0  0  0  0  0  0  0  0  0  0  0  0
   -1.1766    3.3886    1.4177 H   0  0  0  0  0  0  0  0  0  0  0  0
   -2.7467   -2.6888    1.2308 H   0  0  0  0  0  0  0  0  0  0  0  0
   -2.4319   -3.7690   -0.2225 H   0  0  0  0  0  0  0  0  0  0  0  0
   -4.6721   -3.1603   -1.2111 H   0  0  0  0  0  0  0  0  0  0  0  0
   -5.0124   -2.1600    0.2948 H   0  0  0  0  0  0  0  0  0  0  0  0
    2.2301    1.1491   -1.8050 H   0  0  0  0  0  0  0  0  0  0  0  0
    2.4217   -0.6834   -1.8679 H   0  0  0  0  0  0  0  0  0  0  0  0
    2.4576   -0.2996    1.9206 H   0  0  0  0  0  0  0  0  0  0  0  0
    2.0567   -1.7260    0.9083 H   0  0  0  0  0  0  0  0  0  0  0  0
   -7.5946    1.6079   -0.2409 H   0  0  0  0  0  0  0  0  0  0  0  0
    3.9626    1.3599   -0.1684 H   0  0  0  0  0  0  0  0  0  0  0  0
    4.1149   -1.7093   -0.1688 H   0  0  0  0  0  0  0  0  0  0  0  0
    4.5365    0.2620    1.9447 H   0  0  0  0  0  0  0  0  0  0  0  0
    6.8653    0.3086   -1.3780 H   0  0  0  0  0  0  0  0  0  0  0  0
    6.2477   -1.3120   -1.0006 H   0  0  0  0  0  0  0  0  0  0  0  0
    6.0280    1.2598    0.6717 H   0  0  0  0  0  0  0  0  0  0  0  0
    6.9499   -0.2280    0.9936 H   0  0  0  0  0  0  0  0  0  0  0  0
  1  2  1  0
  1  3  2  0
  1  4  1  0
  2  5  1  0
  2  6  1  0
  3  7  1  0
  4  8  1  0
  4  9  2  0
  5 10  1  0
  5 11  1  0
  6 12  2  0
  7 13  1  0
  7 14  2  0
  8 15  2  0
 12 16  1  0
 13 17  1  0
 13 18  1  0
 14 19  1  0
 16 20  1  0
 16 21  2  0
 17 22  1  0
 18 23  1  0
 22 24  1  0
 23 25  1  0
 24 26  1  0
 25 27  1  0
  8 12  1  0
  9 14  1  0
 10 11  1  0
 22 23  1  0
 26 27  1  0
  3 28  1  0
 28 29  3  0
  5 30  1  0
  6 31  1  0
  9 32  1  0
 10 33  1  0
 10 34  1  0
 11 35  1  0
 11 36  1  0
 17 37  1  0
 17 38  1  0
 18 39  1  0
 18 40  1  0
 20 41  1  0
 22 42  1  1
 23 43  1  6
 25 44  1  0
 26 45  1  0
 26 46  1  0
 27 47  1  0
 27 48  1  0
M  END

