310264860
     RDKit          3D

 57 61  0  0  1  0  0  0  0  0999 V2000
    4.3429   -0.2868   -0.2809 C   0  0  0  0  0  0  0  0  0  0  0  0
    5.7891   -0.2685   -0.1333 C   0  0  0  0  0  0  0  0  0  0  0  0
    6.5491    0.8639    0.0252 C   0  0  0  0  0  0  0  0  0  0  0  0
    7.9284    0.7922    0.1631 C   0  0  0  0  0  0  0  0  0  0  0  0
    8.5759   -0.4192    0.1448 C   0  0  0  0  0  0  0  0  0  0  0  0
    9.9049   -0.5262    0.2750 F   0  0  0  0  0  0  0  0  0  0  0  0
    7.8154   -1.5607   -0.0145 C   0  0  0  0  0  0  0  0  0  0  0  0
    6.4692   -1.4669   -0.1475 C   0  0  0  0  0  0  0  0  0  0  0  0
    3.7727   -1.3950   -0.4165 O   0  0  0  0  0  0  0  0  0  0  0  0
    3.4961    0.9235   -0.2804 C   0  0  0  0  0  0  0  0  0  0  0  0
    2.4597    0.9354    0.8292 C   0  0  0  0  0  0  0  0  0  0  0  0
    1.5108   -0.2170    0.7327 C   0  0  0  0  0  0  0  0  0  0  0  0
    0.7722   -0.2699   -0.4756 N   0  0  0  0  0  0  0  0  0  0  0  0
   -0.1687    0.7790   -0.6129 C   0  0  0  0  0  0  0  0  0  0  0  0
   -1.2754    0.6052    0.4056 C   0  0  1  0  0  0  0  0  0  0  0  0
   -2.4941    1.3592    0.0438 C   0  0  0  0  0  0  0  0  0  0  0  0
   -2.8097    2.6768   -0.2959 C   0  0  0  0  0  0  0  0  0  0  0  0
   -4.1174    3.0651   -0.5820 C   0  0  0  0  0  0  0  0  0  0  0  0
   -5.1637    2.1541   -0.5410 C   0  0  0  0  0  0  0  0  0  0  0  0
   -4.8651    0.8334   -0.2038 C   0  0  0  0  0  0  0  0  0  0  0  0
   -3.5652    0.5032    0.0684 C   0  0  0  0  0  0  0  0  0  0  0  0
   -3.1738   -0.7740    0.4050 N   0  0  0  0  0  0  0  0  0  0  0  0
   -1.7414   -0.8229    0.4701 C   0  0  1  0  0  0  0  0  0  0  0  0
   -1.1993   -1.6279   -0.6970 C   0  0  0  0  0  0  0  0  0  0  0  0
    0.2684   -1.5189   -0.8933 C   0  0  0  0  0  0  0  0  0  0  0  0
   -4.1427   -1.8197    0.6275 C   0  0  0  0  0  0  0  0  0  0  0  0
   -5.5080   -1.5593    0.1394 C   0  0  0  0  0  0  0  0  0  0  0  0
   -5.8530   -0.1920   -0.1264 N   0  0  0  0  0  0  0  0  0  0  0  0
   -7.2422    0.1707   -0.3233 C   0  0  0  0  0  0  0  0  0  0  0  0
    6.0702    1.8125    0.0426 H   0  0  0  0  0  0  0  0  0  0  0  0
    8.5306    1.6731    0.2874 H   0  0  0  0  0  0  0  0  0  0  0  0
    8.3092   -2.5253   -0.0314 H   0  0  0  0  0  0  0  0  0  0  0  0
    5.9217   -2.3990   -0.2696 H   0  0  0  0  0  0  0  0  0  0  0  0
    2.8880    0.9898   -1.2279 H   0  0  0  0  0  0  0  0  0  0  0  0
    4.1058    1.8429   -0.2723 H   0  0  0  0  0  0  0  0  0  0  0  0
    3.0500    0.8807    1.7849 H   0  0  0  0  0  0  0  0  0  0  0  0
    1.9337    1.9041    0.8842 H   0  0  0  0  0  0  0  0  0  0  0  0
    1.9803   -1.1939    0.9888 H   0  0  0  0  0  0  0  0  0  0  0  0
    0.7534   -0.0740    1.5662 H   0  0  0  0  0  0  0  0  0  0  0  0
    0.3287    1.7512   -0.3573 H   0  0  0  0  0  0  0  0  0  0  0  0
   -0.5742    0.8975   -1.6368 H   0  0  0  0  0  0  0  0  0  0  0  0
   -0.9800    0.9215    1.4271 H   0  0  0  0  0  0  0  0  0  0  0  0
   -2.0017    3.3845   -0.3288 H   0  0  0  0  0  0  0  0  0  0  0  0
   -4.3546    4.0957   -0.8459 H   0  0  0  0  0  0  0  0  0  0  0  0
   -6.1807    2.4231   -0.7561 H   0  0  0  0  0  0  0  0  0  0  0  0
   -1.4748   -1.3081    1.4443 H   0  0  0  0  0  0  0  0  0  0  0  0
   -1.7768   -1.3229   -1.6024 H   0  0  0  0  0  0  0  0  0  0  0  0
   -1.4822   -2.6865   -0.5117 H   0  0  0  0  0  0  0  0  0  0  0  0
    0.8380   -2.3620   -0.4314 H   0  0  0  0  0  0  0  0  0  0  0  0
    0.4626   -1.6474   -1.9973 H   0  0  0  0  0  0  0  0  0  0  0  0
   -3.7444   -2.7229    0.0866 H   0  0  0  0  0  0  0  0  0  0  0  0
   -4.0751   -2.0890    1.7100 H   0  0  0  0  0  0  0  0  0  0  0  0
   -5.7504   -2.1564   -0.7736 H   0  0  0  0  0  0  0  0  0  0  0  0
   -6.2393   -1.9234    0.9203 H   0  0  0  0  0  0  0  0  0  0  0  0
   -7.8921   -0.7140   -0.3068 H   0  0  0  0  0  0  0  0  0  0  0  0
   -7.5874    0.8285    0.5229 H   0  0  0  0  0  0  0  0  0  0  0  0
   -7.3936    0.7830   -1.2380 H   0  0  0  0  0  0  0  0  0  0  0  0
  1  2  1  0
  2  3  2  0
  3  4  1  0
  4  5  2  0
  5  6  1  0
  5  7  1  0
  7  8  2  0
  2  8  1  0
  1  9  2  0
  1 10  1  0
 10 11  1  0
 11 12  1  0
 12 13  1  0
 13 14  1  0
 14 15  1  0
 15 16  1  0
 16 17  2  0
 17 18  1  0
 18 19  2  0
 19 20  1  0
 20 21  2  0
 16 21  1  0
 21 22  1  0
 22 23  1  0
 23 24  1  0
 24 25  1  0
 13 25  1  0
 15 23  1  0
 22 26  1  0
 26 27  1  0
 27 28  1  0
 28 29  1  0
 20 28  1  0
  3 30  1  0
  4 31  1  0
  7 32  1  0
  8 33  1  0
 10 34  1  0
 10 35  1  0
 11 36  1  0
 11 37  1  0
 12 38  1  0
 12 39  1  0
 14 40  1  0
 14 41  1  0
 15 42  1  1
 17 43  1  0
 18 44  1  0
 19 45  1  0
 23 46  1  1
 24 47  1  0
 24 48  1  0
 25 49  1  0
 25 50  1  0
 26 51  1  0
 26 52  1  0
 27 53  1  0
 27 54  1  0
 29 55  1  0
 29 56  1  0
 29 57  1  0
M  END

