310264956
     RDKit          3D

 75 79  0  0  1  0  0  0  0  0999 V2000
   -2.0028   -1.7057    0.5748 O   0  0  0  0  0  0  0  0  0  0  0  0
   -4.1921    0.5011   -1.0471 O   0  0  0  0  0  0  0  0  0  0  0  0
   -4.7804   -0.9937    0.5088 O   0  0  0  0  0  0  0  0  0  0  0  0
   -3.6365   -4.8104    0.5614 O   0  0  0  0  0  0  0  0  0  0  0  0
   -0.9750   -5.4498   -0.3864 O   0  0  0  0  0  0  0  0  0  0  0  0
   -0.0387   -2.5065    1.2608 O   0  0  0  0  0  0  0  0  0  0  0  0
   -1.0210   -2.5500   -2.1953 O   0  0  0  0  0  0  0  0  0  0  0  0
   -6.7724   -1.0564   -2.2297 O   0  0  0  0  0  0  0  0  0  0  0  0
   -6.4055    1.3320   -2.6592 O   0  0  0  0  0  0  0  0  0  0  0  0
   -6.4516    1.7734    0.8892 O   0  0  0  0  0  0  0  0  0  0  0  0
    3.8936    0.2138    0.9273 O   0  0  0  0  0  0  0  0  0  0  0  0
    3.3052   -2.8209    4.5616 O   0  0  0  0  0  0  0  0  0  0  0  0
    5.3651   -1.2922    4.2514 O   0  0  0  0  0  0  0  0  0  0  0  0
    7.6978    4.6484   -1.8023 O   0  0  0  0  0  0  0  0  0  0  0  0
    8.8848    3.6103    0.5378 O   0  0  0  0  0  0  0  0  0  0  0  0
   -3.0128   -2.5146    0.1358 C   0  0  1  0  0  0  0  0  0  0  0  0
   -2.5866   -3.9527    0.4310 C   0  0  2  0  0  0  0  0  0  0  0  0
   -1.6448   -4.2907   -0.7204 C   0  0  1  0  0  0  0  0  0  0  0  0
   -0.7279   -3.1176   -0.9698 C   0  0  2  0  0  0  0  0  0  0  0  0
   -6.4593   -0.3792   -1.0490 C   0  0  1  0  0  0  0  0  0  0  0  0
   -4.9773   -0.5693   -0.7773 C   0  0  1  0  0  0  0  0  0  0  0  0
   -6.7713    1.0721   -1.3173 C   0  0  1  0  0  0  0  0  0  0  0  0
   -5.9825    1.9908   -0.4190 C   0  0  2  0  0  0  0  0  0  0  0  0
   -0.7850   -2.1040    0.1435 C   0  0  1  0  0  0  0  0  0  0  0  0
   -4.5160    1.6964   -0.4389 C   0  0  2  0  0  0  0  0  0  0  0  0
   -4.3619   -2.2448    0.7506 C   0  0  0  0  0  0  0  0  0  0  0  0
   -3.8616    2.7906   -1.3009 C   0  0  0  0  0  0  0  0  0  0  0  0
    1.1754   -2.0631    1.6946 C   0  0  0  0  0  0  0  0  0  0  0  0
    1.9687   -1.1262    1.1019 C   0  0  0  0  0  0  0  0  0  0  0  0
    1.6554   -2.6218    2.8662 C   0  0  0  0  0  0  0  0  0  0  0  0
    3.1974   -0.6909    1.5657 C   0  0  0  0  0  0  0  0  0  0  0  0
    2.8977   -2.2320    3.4059 C   0  0  0  0  0  0  0  0  0  0  0  0
    3.6476   -1.2780    2.7536 C   0  0  0  0  0  0  0  0  0  0  0  0
    4.8664   -0.8392    3.2007 C   0  0  0  0  0  0  0  0  0  0  0  0
    5.0638    0.6695    1.3073 C   0  0  0  0  0  0  0  0  0  0  0  0
    5.5573    0.1329    2.4649 C   0  0  0  0  0  0  0  0  0  0  0  0
    5.7747    1.6953    0.5163 C   0  0  0  0  0  0  0  0  0  0  0  0
    7.0013    2.1804    0.8838 C   0  0  0  0  0  0  0  0  0  0  0  0
    5.2114    2.2156   -0.6330 C   0  0  0  0  0  0  0  0  0  0  0  0
    7.6407    3.1614    0.1148 C   0  0  0  0  0  0  0  0  0  0  0  0
    5.8332    3.1818   -1.3981 C   0  0  0  0  0  0  0  0  0  0  0  0
    7.0738    3.6753   -1.0313 C   0  0  0  0  0  0  0  0  0  0  0  0
    7.0729    5.1480   -2.9682 C   0  0  0  0  0  0  0  0  0  0  0  0
   -3.5851   -5.3618    1.4063 H   0  0  0  0  0  0  0  0  0  0  0  0
   -0.2038   -5.3465    0.1944 H   0  0  0  0  0  0  0  0  0  0  0  0
   -0.9058   -3.2373   -2.9022 H   0  0  0  0  0  0  0  0  0  0  0  0
   -6.7528   -0.5207   -3.0355 H   0  0  0  0  0  0  0  0  0  0  0  0
   -6.7602    2.2363   -2.8912 H   0  0  0  0  0  0  0  0  0  0  0  0
   -7.3794    1.4097    0.8724 H   0  0  0  0  0  0  0  0  0  0  0  0
    4.1016   -2.7005    5.0748 H   0  0  0  0  0  0  0  0  0  0  0  0
    9.3693    4.3129    0.0061 H   0  0  0  0  0  0  0  0  0  0  0  0
   -3.0989   -2.4540   -0.9754 H   0  0  0  0  0  0  0  0  0  0  0  0
   -1.9951   -3.9217    1.3619 H   0  0  0  0  0  0  0  0  0  0  0  0
   -2.2872   -4.4908   -1.5936 H   0  0  0  0  0  0  0  0  0  0  0  0
    0.3014   -3.5065   -1.0220 H   0  0  0  0  0  0  0  0  0  0  0  0
   -7.0621   -0.8272   -0.2256 H   0  0  0  0  0  0  0  0  0  0  0  0
   -4.6789   -1.4183   -1.4355 H   0  0  0  0  0  0  0  0  0  0  0  0
   -7.8703    1.2117   -1.2037 H   0  0  0  0  0  0  0  0  0  0  0  0
   -6.2081    3.0445   -0.6667 H   0  0  0  0  0  0  0  0  0  0  0  0
   -0.2515   -1.1969   -0.2726 H   0  0  0  0  0  0  0  0  0  0  0  0
   -4.0961    1.8283    0.5731 H   0  0  0  0  0  0  0  0  0  0  0  0
   -4.2280   -2.3831    1.8654 H   0  0  0  0  0  0  0  0  0  0  0  0
   -5.0253   -3.0547    0.3777 H   0  0  0  0  0  0  0  0  0  0  0  0
   -4.4514    3.7243   -1.2130 H   0  0  0  0  0  0  0  0  0  0  0  0
   -3.9336    2.4453   -2.3475 H   0  0  0  0  0  0  0  0  0  0  0  0
   -2.7973    2.9059   -1.0699 H   0  0  0  0  0  0  0  0  0  0  0  0
    1.6214   -0.6727    0.1878 H   0  0  0  0  0  0  0  0  0  0  0  0
    1.0949   -3.3787    3.4093 H   0  0  0  0  0  0  0  0  0  0  0  0
    6.5192    0.4523    2.8529 H   0  0  0  0  0  0  0  0  0  0  0  0
    7.4864    1.8034    1.7795 H   0  0  0  0  0  0  0  0  0  0  0  0
    4.2371    1.8401   -0.9375 H   0  0  0  0  0  0  0  0  0  0  0  0
    5.3729    3.5836   -2.3080 H   0  0  0  0  0  0  0  0  0  0  0  0
    7.7530    5.8390   -3.5276 H   0  0  0  0  0  0  0  0  0  0  0  0
    6.7369    4.3418   -3.6670 H   0  0  0  0  0  0  0  0  0  0  0  0
    6.1558    5.7579   -2.7334 H   0  0  0  0  0  0  0  0  0  0  0  0
  1 16  1  0
  1 24  1  0
  2 21  1  0
  2 25  1  0
 21  3  1  0
  3 26  1  0
 17  4  1  0
 18  5  1  0
 24  6  1  0
  6 28  1  0
 19  7  1  0
 20  8  1  0
 22  9  1  0
 23 10  1  0
 11 31  1  0
 11 35  1  0
 12 32  1  0
 13 34  2  0
 14 42  1  0
 14 43  1  0
 15 40  1  0
 16 17  1  0
 16 26  1  0
 17 18  1  0
 18 19  1  0
 19 24  1  0
 20 21  1  0
 20 22  1  0
 22 23  1  0
 23 25  1  0
 25 27  1  0
 28 29  1  0
 28 30  2  0
 29 31  2  0
 30 32  1  0
 31 33  1  0
 32 33  2  0
 33 34  1  0
 34 36  1  0
 35 36  2  0
 35 37  1  0
 37 38  2  0
 37 39  1  0
 38 40  1  0
 39 41  2  0
 40 42  2  0
 41 42  1  0
  4 44  1  0
  5 45  1  0
  7 46  1  0
  8 47  1  0
  9 48  1  0
 10 49  1  0
 12 50  1  0
 15 51  1  0
 16 52  1  6
 17 53  1  1
 18 54  1  6
 19 55  1  6
 20 56  1  1
 21 57  1  6
 22 58  1  6
 23 59  1  6
 24 60  1  6
 25 61  1  1
 26 62  1  0
 26 63  1  0
 27 64  1  0
 27 65  1  0
 27 66  1  0
 29 67  1  0
 30 68  1  0
 36 69  1  0
 38 70  1  0
 39 71  1  0
 41 72  1  0
 43 73  1  0
 43 74  1  0
 43 75  1  0
M  END

