310265155
     RDKit          3D

 33 33  0  0  0  0  0  0  0  0999 V2000
   -1.2202   -1.3680   -0.9157 O   0  0  0  0  0  0  0  0  0  0  0  0
   -0.8096    0.1313    0.8098 N   0  0  0  0  0  0  0  0  0  0  0  0
    0.5168   -0.2914    0.8898 N   0  0  0  0  0  0  0  0  0  0  0  0
   -3.0860   -0.0772   -0.3058 C   0  0  0  0  0  0  0  0  0  0  0  0
   -3.8923   -0.2593    0.9606 C   0  0  0  0  0  0  0  0  0  0  0  0
   -3.2351    1.3501   -0.8019 C   0  0  0  0  0  0  0  0  0  0  0  0
   -3.7135   -0.9621   -1.3579 C   0  0  0  0  0  0  0  0  0  0  0  0
   -1.6801   -0.4620   -0.1527 C   0  0  0  0  0  0  0  0  0  0  0  0
    1.3705    0.6685    0.2244 C   0  0  0  0  0  0  0  0  0  0  0  0
    2.7805    0.2581    0.2926 C   0  0  0  0  0  0  0  0  0  0  0  0
    3.1686   -0.9184    0.9029 C   0  0  0  0  0  0  0  0  0  0  0  0
    3.7224    1.0895   -0.2799 C   0  0  0  0  0  0  0  0  0  0  0  0
    4.4957   -1.2775    0.9488 C   0  0  0  0  0  0  0  0  0  0  0  0
    5.0549    0.7529   -0.2484 C   0  0  0  0  0  0  0  0  0  0  0  0
    5.4121   -0.4163    0.3616 C   0  0  0  0  0  0  0  0  0  0  0  0
   -1.1615    0.8825    1.4587 H   0  0  0  0  0  0  0  0  0  0  0  0
    0.6423   -1.2148    0.4155 H   0  0  0  0  0  0  0  0  0  0  0  0
   -3.5882    0.4474    1.7533 H   0  0  0  0  0  0  0  0  0  0  0  0
   -3.8237   -1.2714    1.3647 H   0  0  0  0  0  0  0  0  0  0  0  0
   -4.9608   -0.0840    0.6836 H   0  0  0  0  0  0  0  0  0  0  0  0
   -3.1032    2.0611    0.0277 H   0  0  0  0  0  0  0  0  0  0  0  0
   -2.4445    1.4689   -1.5966 H   0  0  0  0  0  0  0  0  0  0  0  0
   -4.2015    1.5040   -1.3152 H   0  0  0  0  0  0  0  0  0  0  0  0
   -4.7245   -0.5522   -1.5805 H   0  0  0  0  0  0  0  0  0  0  0  0
   -3.1076   -0.8415   -2.2839 H   0  0  0  0  0  0  0  0  0  0  0  0
   -3.7622   -2.0162   -1.0255 H   0  0  0  0  0  0  0  0  0  0  0  0
    1.2239    1.6838    0.6600 H   0  0  0  0  0  0  0  0  0  0  0  0
    1.1136    0.7676   -0.8576 H   0  0  0  0  0  0  0  0  0  0  0  0
    2.4505   -1.5875    1.3553 H   0  0  0  0  0  0  0  0  0  0  0  0
    3.4435    2.0122   -0.7608 H   0  0  0  0  0  0  0  0  0  0  0  0
    4.8269   -2.1825    1.4151 H   0  0  0  0  0  0  0  0  0  0  0  0
    5.8298    1.3946   -0.6980 H   0  0  0  0  0  0  0  0  0  0  0  0
    6.4625   -0.6898    0.3937 H   0  0  0  0  0  0  0  0  0  0  0  0
  1  8  2  0
  2  3  1  0
  2  8  1  0
  3  9  1  0
  4  5  1  0
  4  6  1  0
  4  7  1  0
  4  8  1  0
  9 10  1  0
 10 11  2  0
 10 12  1  0
 11 13  1  0
 12 14  2  0
 13 15  2  0
 14 15  1  0
  2 16  1  0
  3 17  1  0
  5 18  1  0
  5 19  1  0
  5 20  1  0
  6 21  1  0
  6 22  1  0
  6 23  1  0
  7 24  1  0
  7 25  1  0
  7 26  1  0
  9 27  1  0
  9 28  1  0
 11 29  1  0
 12 30  1  0
 13 31  1  0
 14 32  1  0
 15 33  1  0
M  END

