310264954
     RDKit          3D

 91 92  0  0  1  0  0  0  0  0999 V2000
   -5.3974   -2.1955    0.2651 C   0  0  0  0  0  0  0  0  0  0  0  0
   -4.6750    0.3245    0.3233 N   0  0  0  0  0  0  0  0  0  0  0  0
   -3.4174    0.8816   -0.0414 C   0  0  1  0  0  0  0  0  0  0  0  0
   -4.2816   -3.0673    0.4041 N   0  0  0  0  0  0  0  0  0  0  0  0
   -5.4282   -0.8048    0.0055 C   0  0  0  0  0  0  0  0  0  0  0  0
   -2.0109    4.0381   -0.0249 C   0  0  0  0  0  0  0  0  0  0  0  0
   -2.9858    4.6459    0.6035 N   0  0  0  0  0  0  0  0  0  0  0  0
   -0.8990   -3.5998   -0.5910 N   0  0  0  0  0  0  0  0  0  0  0  0
    0.8312   -1.8951    1.1285 N   0  0  0  0  0  0  0  0  0  0  0  0
   -3.5493    2.1973   -0.7364 C   0  0  2  0  0  0  0  0  0  0  0  0
   -2.9212   -2.8204    0.4347 C   0  0  0  0  0  0  0  0  0  0  0  0
    0.4548   -3.3551   -0.8192 C   0  0  0  0  0  0  0  0  0  0  0  0
    0.6235   -0.6344    1.6408 C   0  0  0  0  0  0  0  0  0  0  0  0
   -2.3185    2.9259   -0.8950 N   0  0  0  0  0  0  0  0  0  0  0  0
    1.2415   -2.2182   -0.1979 C   0  0  2  0  0  0  0  0  0  0  0  0
   -1.9546   -2.5766   -0.6615 C   0  0  2  0  0  0  0  0  0  0  0  0
   -2.5089    0.9633    1.1042 C   0  0  0  0  0  0  0  0  0  0  0  0
    1.0788    0.6568    1.1438 C   0  0  1  0  0  0  0  0  0  0  0  0
   -1.1948    1.5015    1.1421 N   0  0  0  0  0  0  0  0  0  0  0  0
   -4.6459    3.0993   -0.3778 C   0  0  0  0  0  0  0  0  0  0  0  0
    3.2763    1.7787    0.7171 C   0  0  0  0  0  0  0  0  0  0  0  0
   -6.6424   -2.8333    0.5009 C   0  0  0  0  0  0  0  0  0  0  0  0
   -4.3503    4.2787    0.4857 C   0  0  0  0  0  0  0  0  0  0  0  0
    4.4823    1.7006   -0.1127 C   0  0  0  0  0  0  0  0  0  0  0  0
    2.2940    0.7662    0.4615 N   0  0  0  0  0  0  0  0  0  0  0  0
   -7.0384   -5.4245    1.1494 C   0  0  0  0  0  0  0  0  0  0  0  0
   -6.8020   -4.0409    0.8009 N   0  0  0  0  0  0  0  0  0  0  0  0
   -0.7322    4.5441    0.2085 N   0  0  0  0  0  0  0  0  0  0  0  0
   -0.1047    1.1808    0.2665 C   0  0  0  0  0  0  0  0  0  0  0  0
    5.5221    2.7502    0.0418 C   0  0  2  0  0  0  0  0  0  0  0  0
   -6.4737   -0.4189   -0.7623 O   0  0  0  0  0  0  0  0  0  0  0  0
    1.1221   -4.0912   -1.5819 O   0  0  0  0  0  0  0  0  0  0  0  0
   -0.0853   -0.5767    2.7317 O   0  0  0  0  0  0  0  0  0  0  0  0
   -2.3301   -2.7949    1.5903 O   0  0  0  0  0  0  0  0  0  0  0  0
   -3.0030    0.4727    2.1977 O   0  0  0  0  0  0  0  0  0  0  0  0
   -8.1389   -5.9086    1.3838 O   0  0  0  0  0  0  0  0  0  0  0  0
    3.0783    2.6421    1.5903 O   0  0  0  0  0  0  0  0  0  0  0  0
   -5.9141   -6.2772    1.2305 N   0  0  0  0  0  0  0  0  0  0  0  0
    6.6933    2.4482   -0.9130 C   0  0  1  0  0  0  0  0  0  0  0  0
    5.9347    3.0840    1.3450 N   0  0  0  0  0  0  0  0  0  0  0  0
   -2.5326   -2.5192   -2.0374 C   0  0  0  0  0  0  0  0  0  0  0  0
    2.6984   -2.7195   -0.0344 C   0  0  0  0  0  0  0  0  0  0  0  0
    7.7613    1.6115   -0.2955 C   0  0  0  0  0  0  0  0  0  0  0  0
    9.4442    2.4361   -1.8838 N   0  0  0  0  0  0  0  0  0  0  0  0
    2.6887   -3.8284    0.8319 O   0  0  0  0  0  0  0  0  0  0  0  0
   -3.0955   -3.7124   -2.4668 O   0  0  0  0  0  0  0  0  0  0  0  0
    8.8479    1.2651   -1.2959 C   0  0  0  0  0  0  0  0  0  0  0  0
    6.2535    2.1053   -2.1518 O   0  0  0  0  0  0  0  0  0  0  0  0
   -5.1971    0.9793    1.0685 H   0  0  0  0  0  0  0  0  0  0  0  0
   -2.9136    0.1520   -0.7519 H   0  0  0  0  0  0  0  0  0  0  0  0
   -4.5344   -4.1049    0.5429 H   0  0  0  0  0  0  0  0  0  0  0  0
   -1.1984   -4.5684   -0.3421 H   0  0  0  0  0  0  0  0  0  0  0  0
    0.6913   -2.7612    1.7645 H   0  0  0  0  0  0  0  0  0  0  0  0
   -3.7955    1.8802   -1.8390 H   0  0  0  0  0  0  0  0  0  0  0  0
   -1.6021    2.7234   -1.6262 H   0  0  0  0  0  0  0  0  0  0  0  0
    1.1730   -1.4289   -0.9431 H   0  0  0  0  0  0  0  0  0  0  0  0
   -1.3973   -1.6305   -0.5194 H   0  0  0  0  0  0  0  0  0  0  0  0
    1.1077    1.4495    1.9654 H   0  0  0  0  0  0  0  0  0  0  0  0
   -1.0212    2.1932    1.9128 H   0  0  0  0  0  0  0  0  0  0  0  0
   -5.0632    3.5303   -1.3584 H   0  0  0  0  0  0  0  0  0  0  0  0
   -5.5682    2.6342    0.0534 H   0  0  0  0  0  0  0  0  0  0  0  0
   -7.4991   -2.0845    0.3970 H   0  0  0  0  0  0  0  0  0  0  0  0
   -4.8839    4.2295    1.4701 H   0  0  0  0  0  0  0  0  0  0  0  0
   -4.8543    5.1777   -0.0026 H   0  0  0  0  0  0  0  0  0  0  0  0
    4.0959    1.7850   -1.1897 H   0  0  0  0  0  0  0  0  0  0  0  0
    4.8988    0.6687   -0.0621 H   0  0  0  0  0  0  0  0  0  0  0  0
    2.5421    0.1047   -0.2961 H   0  0  0  0  0  0  0  0  0  0  0  0
   -8.1369   -3.9710    0.5466 H   0  0  0  0  0  0  0  0  0  0  0  0
   -0.1058    4.0518    0.8737 H   0  0  0  0  0  0  0  0  0  0  0  0
   -0.3913    5.4027   -0.2470 H   0  0  0  0  0  0  0  0  0  0  0  0
    0.2601    2.0372   -0.3305 H   0  0  0  0  0  0  0  0  0  0  0  0
   -0.4191    0.3853   -0.4288 H   0  0  0  0  0  0  0  0  0  0  0  0
    5.0725    3.6937   -0.4072 H   0  0  0  0  0  0  0  0  0  0  0  0
   -5.1456   -6.1124    1.9123 H   0  0  0  0  0  0  0  0  0  0  0  0
   -5.8494   -7.0966    0.5786 H   0  0  0  0  0  0  0  0  0  0  0  0
    7.1719    3.4920   -1.0528 H   0  0  0  0  0  0  0  0  0  0  0  0
    6.9345    3.3581    1.3846 H   0  0  0  0  0  0  0  0  0  0  0  0
    5.3726    3.8423    1.7706 H   0  0  0  0  0  0  0  0  0  0  0  0
   -3.4232   -1.8196   -1.9645 H   0  0  0  0  0  0  0  0  0  0  0  0
   -1.7752   -2.1038   -2.7067 H   0  0  0  0  0  0  0  0  0  0  0  0
    3.2766   -1.9305    0.4827 H   0  0  0  0  0  0  0  0  0  0  0  0
    3.1200   -3.0508   -0.9878 H   0  0  0  0  0  0  0  0  0  0  0  0
    7.3548    0.6825    0.1219 H   0  0  0  0  0  0  0  0  0  0  0  0
    8.2736    2.1696    0.5398 H   0  0  0  0  0  0  0  0  0  0  0  0
   10.4303    2.2489   -2.1076 H   0  0  0  0  0  0  0  0  0  0  0  0
    9.3189    3.2292   -1.2432 H   0  0  0  0  0  0  0  0  0  0  0  0
    2.6503   -3.4600    1.7581 H   0  0  0  0  0  0  0  0  0  0  0  0
   -2.6297   -4.5276   -2.2096 H   0  0  0  0  0  0  0  0  0  0  0  0
    8.5002    0.6095   -2.1230 H   0  0  0  0  0  0  0  0  0  0  0  0
    9.6803    0.7159   -0.7599 H   0  0  0  0  0  0  0  0  0  0  0  0
    6.5834    1.2390   -2.4738 H   0  0  0  0  0  0  0  0  0  0  0  0
  1  4  1  0
  1  5  1  0
  1 22  2  0
  2  5  1  0
  2  3  1  0
  3 10  1  0
  3 17  1  0
  4 11  1  0
  5 31  2  0
  6 14  1  0
  6 28  1  0
  6  7  2  0
  7 23  1  0
  8 16  1  0
  8 12  1  0
  9 15  1  0
  9 13  1  0
 10 14  1  0
 10 20  1  0
 11 16  1  0
 11 34  2  0
 12 15  1  0
 12 32  2  0
 13 18  1  0
 13 33  2  0
 15 42  1  0
 16 41  1  0
 17 19  1  0
 17 35  2  0
 18 29  1  0
 18 25  1  0
 19 29  1  0
 20 23  1  0
 21 25  1  0
 21 24  1  0
 21 37  2  0
 22 27  1  0
 24 30  1  0
 26 27  1  0
 26 36  2  0
 26 38  1  0
 30 39  1  0
 30 40  1  0
 39 43  1  0
 39 48  1  0
 41 46  1  0
 42 45  1  0
 43 47  1  0
 44 47  1  0
  2 49  1  0
  3 50  1  6
  4 51  1  0
  8 52  1  0
  9 53  1  0
 10 54  1  6
 14 55  1  0
 15 56  1  6
 16 57  1  1
 18 58  1  1
 19 59  1  0
 20 60  1  0
 20 61  1  0
 22 62  1  0
 23 63  1  0
 23 64  1  0
 24 65  1  0
 24 66  1  0
 25 67  1  0
 27 68  1  0
 28 69  1  0
 28 70  1  0
 29 71  1  0
 29 72  1  0
 30 73  1  6
 38 74  1  0
 38 75  1  0
 39 76  1  6
 40 77  1  0
 40 78  1  0
 41 79  1  0
 41 80  1  0
 42 81  1  0
 42 82  1  0
 43 83  1  0
 43 84  1  0
 44 85  1  0
 44 86  1  0
 45 87  1  0
 46 88  1  0
 47 89  1  0
 47 90  1  0
 48 91  1  0
M  END

