310265156
     RDKit          3D

 31 32  0  0  1  0  0  0  0  0999 V2000
   -3.2595    0.3951   -1.8160 N   0  0  0  0  0  0  0  0  0  0  0  0
   -3.5164   -0.5405   -0.8476 N   0  0  0  0  0  0  0  0  0  0  0  0
   -2.8849   -0.3550    0.4136 C   0  0  0  0  0  0  0  0  0  0  0  0
   -1.4032   -0.3943    0.4354 C   0  0  0  0  0  0  0  0  0  0  0  0
   -0.6838    0.6105   -0.3889 C   0  0  0  0  0  0  0  0  0  0  0  0
    0.7902    0.3596   -0.1788 C   0  0  0  0  0  0  0  0  0  0  0  0
    1.5031   -0.5064   -0.9806 C   0  0  0  0  0  0  0  0  0  0  0  0
    2.8484   -0.7549   -0.8122 C   0  0  0  0  0  0  0  0  0  0  0  0
    3.5138   -0.0943    0.2218 C   0  0  0  0  0  0  0  0  0  0  0  0
    2.8346    0.7812    1.0469 C   0  0  0  0  0  0  0  0  0  0  0  0
    1.4831    1.0004    0.8409 C   0  0  0  0  0  0  0  0  0  0  0  0
    3.7738    1.2707    1.9690 O   0  0  0  0  0  0  0  0  0  0  0  0
    5.0608    1.1153    1.3583 C   0  0  0  0  0  0  0  0  0  0  0  0
    4.8475   -0.1184    0.6584 O   0  0  0  0  0  0  0  0  0  0  0  0
   -3.3637   -1.4580    1.3712 C   0  0  0  0  0  0  0  0  0  0  0  0
   -3.0048    1.3355   -1.5294 H   0  0  0  0  0  0  0  0  0  0  0  0
   -2.8632   -0.0011   -2.6675 H   0  0  0  0  0  0  0  0  0  0  0  0
   -4.5467   -0.6216   -0.7143 H   0  0  0  0  0  0  0  0  0  0  0  0
   -3.2458    0.6100    0.8778 H   0  0  0  0  0  0  0  0  0  0  0  0
   -1.0256   -1.4170    0.2241 H   0  0  0  0  0  0  0  0  0  0  0  0
   -1.0970   -0.2087    1.5082 H   0  0  0  0  0  0  0  0  0  0  0  0
   -0.8317    0.3625   -1.4773 H   0  0  0  0  0  0  0  0  0  0  0  0
   -0.9219    1.6452   -0.1594 H   0  0  0  0  0  0  0  0  0  0  0  0
    0.9194   -0.9938   -1.7760 H   0  0  0  0  0  0  0  0  0  0  0  0
    3.3607   -1.4316   -1.4544 H   0  0  0  0  0  0  0  0  0  0  0  0
    0.9528    1.6819    1.4826 H   0  0  0  0  0  0  0  0  0  0  0  0
    5.1668    1.8862    0.5833 H   0  0  0  0  0  0  0  0  0  0  0  0
    5.8694    1.0559    2.0822 H   0  0  0  0  0  0  0  0  0  0  0  0
   -2.7147   -1.4558    2.2790 H   0  0  0  0  0  0  0  0  0  0  0  0
   -4.4276   -1.3381    1.5935 H   0  0  0  0  0  0  0  0  0  0  0  0
   -3.1340   -2.4207    0.8436 H   0  0  0  0  0  0  0  0  0  0  0  0
  1  2  1  0
  2  3  1  0
  3  4  1  0
  3 15  1  0
  4  5  1  0
  5  6  1  0
  6  7  2  0
  6 11  1  0
  7  8  1  0
  8  9  2  0
  9 10  1  0
  9 14  1  0
 10 11  2  0
 10 12  1  0
 12 13  1  0
 13 14  1  0
  1 16  1  0
  1 17  1  0
  2 18  1  0
  3 19  1  0
  4 20  1  0
  4 21  1  0
  5 22  1  0
  5 23  1  0
  7 24  1  0
  8 25  1  0
 11 26  1  0
 13 27  1  0
 13 28  1  0
 15 29  1  0
 15 30  1  0
 15 31  1  0
M  END

