310265227
     RDKit          3D

 14 14  0  0  0  0  0  0  0  0999 V2000
    1.4296    1.8962   -1.4861 O   0  0  0  0  0  0  0  0  0  0  0  0
   -1.5739   -1.7193    1.5761 O   0  0  0  0  0  0  0  0  0  0  0  0
    0.7222    1.0027   -0.6947 C   0  0  0  0  0  0  0  0  0  0  0  0
   -0.8230   -0.8213    0.8203 C   0  0  0  0  0  0  0  0  0  0  0  0
   -0.4997    0.5424   -1.1382 C   0  0  0  0  0  0  0  0  0  0  0  0
   -1.2588   -0.3514   -0.3977 C   0  0  0  0  0  0  0  0  0  0  0  0
    1.1568    0.5319    0.5237 C   0  0  0  0  0  0  0  0  0  0  0  0
    0.3992   -0.3640    1.2693 C   0  0  0  0  0  0  0  0  0  0  0  0
    2.0954    1.5995   -2.1879 H   0  0  0  0  0  0  0  0  0  0  0  0
   -1.4883   -2.7200    1.4897 H   0  0  0  0  0  0  0  0  0  0  0  0
   -0.8556    0.9066   -2.1005 H   0  0  0  0  0  0  0  0  0  0  0  0
   -2.2252   -0.7008   -0.7730 H   0  0  0  0  0  0  0  0  0  0  0  0
    2.1222    0.8921    0.8799 H   0  0  0  0  0  0  0  0  0  0  0  0
    0.7991   -0.6947    2.2191 H   0  0  0  0  0  0  0  0  0  0  0  0
  1  3  1  0
  2  4  1  0
  3  5  2  0
  3  7  1  0
  4  6  2  0
  4  8  1  0
  5  6  1  0
  7  8  2  0
  1  9  1  0
  2 10  1  0
  5 11  1  0
  6 12  1  0
  7 13  1  0
  8 14  1  0
M  END

