310265093
     RDKit          3D

 36 37  0  0  1  0  0  0  0  0999 V2000
   -2.6953   -2.4653    1.4662 C   0  0  0  0  0  0  0  0  0  0  0  0
   -3.7383   -1.6569    1.0546 C   0  0  0  0  0  0  0  0  0  0  0  0
   -3.4976   -0.4525    0.4276 C   0  0  0  0  0  0  0  0  0  0  0  0
   -2.2157   -0.0044    0.1852 C   0  0  0  0  0  0  0  0  0  0  0  0
   -1.1801   -0.8411    0.6115 C   0  0  0  0  0  0  0  0  0  0  0  0
   -1.4071   -2.0329    1.2318 C   0  0  0  0  0  0  0  0  0  0  0  0
    0.1181   -0.4292    0.3877 O   0  0  0  0  0  0  0  0  0  0  0  0
    1.1808   -1.2425    0.8016 C   0  0  0  0  0  0  0  0  0  0  0  0
    2.5216   -0.6219    0.4693 C   0  0  0  0  0  0  0  0  0  0  0  0
   -1.8975    1.1746   -0.4292 O   0  0  0  0  0  0  0  0  0  0  0  0
   -2.7907    2.1220   -0.9141 C   0  0  0  0  0  0  0  0  0  0  0  0
   -3.7202    1.6201   -1.9714 C   0  0  0  0  0  0  0  0  0  0  0  0
    2.6108    0.6203    1.1297 O   0  0  0  0  0  0  0  0  0  0  0  0
    3.9494    0.9927    1.0527 C   0  0  0  0  0  0  0  0  0  0  0  0
    4.4889    1.0364   -0.3327 C   0  0  0  0  0  0  0  0  0  0  0  0
    3.5733    0.6476   -1.3558 N   0  0  0  0  0  0  0  0  0  0  0  0
    2.6384   -0.3650   -0.9873 C   0  0  0  0  0  0  0  0  0  0  0  0
   -2.8745   -3.4139    1.9599 H   0  0  0  0  0  0  0  0  0  0  0  0
   -4.7443   -2.0265    1.2542 H   0  0  0  0  0  0  0  0  0  0  0  0
   -4.3234    0.1538    0.1193 H   0  0  0  0  0  0  0  0  0  0  0  0
   -0.6098   -2.6985    1.5712 H   0  0  0  0  0  0  0  0  0  0  0  0
    1.0666   -1.4430    1.8806 H   0  0  0  0  0  0  0  0  0  0  0  0
    1.1516   -2.2511    0.2945 H   0  0  0  0  0  0  0  0  0  0  0  0
    3.3597   -1.2686    0.7907 H   0  0  0  0  0  0  0  0  0  0  0  0
   -2.1742    2.9488   -1.3748 H   0  0  0  0  0  0  0  0  0  0  0  0
   -3.3484    2.6253   -0.0872 H   0  0  0  0  0  0  0  0  0  0  0  0
   -3.6538    2.2236   -2.9143 H   0  0  0  0  0  0  0  0  0  0  0  0
   -3.5956    0.5453   -2.1968 H   0  0  0  0  0  0  0  0  0  0  0  0
   -4.7627    1.7540   -1.6145 H   0  0  0  0  0  0  0  0  0  0  0  0
    4.1297    1.9530    1.5989 H   0  0  0  0  0  0  0  0  0  0  0  0
    4.5178    0.2142    1.6416 H   0  0  0  0  0  0  0  0  0  0  0  0
    4.8124    2.0870   -0.5463 H   0  0  0  0  0  0  0  0  0  0  0  0
    5.4327    0.4214   -0.4087 H   0  0  0  0  0  0  0  0  0  0  0  0
    3.1926    1.4184   -1.9199 H   0  0  0  0  0  0  0  0  0  0  0  0
    2.8576   -1.3134   -1.5156 H   0  0  0  0  0  0  0  0  0  0  0  0
    1.6276   -0.0321   -1.3602 H   0  0  0  0  0  0  0  0  0  0  0  0
  1  2  2  0
  2  3  1  0
  3  4  2  0
  4  5  1  0
  5  6  2  0
  1  6  1  0
  5  7  1  0
  7  8  1  0
  8  9  1  0
  4 10  1  0
 10 11  1  0
 11 12  1  0
  9 13  1  0
 13 14  1  0
 14 15  1  0
 15 16  1  0
 16 17  1  0
  9 17  1  0
  1 18  1  0
  2 19  1  0
  3 20  1  0
  6 21  1  0
  8 22  1  0
  8 23  1  0
  9 24  1  0
 11 25  1  0
 11 26  1  0
 12 27  1  0
 12 28  1  0
 12 29  1  0
 14 30  1  0
 14 31  1  0
 15 32  1  0
 15 33  1  0
 16 34  1  0
 17 35  1  0
 17 36  1  0
M  END

