310264992
     RDKit          3D

 73 76  0  0  0  0  0  0  0  0999 V2000
    1.6653   -2.9207   -2.2738 C   0  0  0  0  0  0  0  0  0  0  0  0
    1.8139   -3.4383   -0.8683 C   0  0  0  0  0  0  0  0  0  0  0  0
    1.9946   -4.8088   -0.6830 C   0  0  0  0  0  0  0  0  0  0  0  0
    2.1217   -5.3349    0.5919 C   0  0  0  0  0  0  0  0  0  0  0  0
    2.0656   -4.4633    1.6491 C   0  0  0  0  0  0  0  0  0  0  0  0
    1.8863   -3.1161    1.4718 C   0  0  0  0  0  0  0  0  0  0  0  0
    1.7610   -2.6062    0.2125 C   0  0  0  0  0  0  0  0  0  0  0  0
    1.5852   -1.1884    0.0137 C   0  0  0  0  0  0  0  0  0  0  0  0
    2.7151   -0.3962   -0.0867 C   0  0  0  0  0  0  0  0  0  0  0  0
    2.6354    0.9723   -0.2466 C   0  0  0  0  0  0  0  0  0  0  0  0
    1.4213    1.5038   -0.3051 N   0  0  0  0  0  0  0  0  0  0  0  0
    0.3003    0.7718   -0.2104 C   0  0  0  0  0  0  0  0  0  0  0  0
    0.3360   -0.6299   -0.0403 C   0  0  0  0  0  0  0  0  0  0  0  0
   -0.8942   -1.3109    0.1733 N   0  0  0  0  0  0  0  0  0  0  0  0
   -1.0626   -2.5296    0.8905 C   0  0  0  0  0  0  0  0  0  0  0  0
   -2.0682   -0.6753   -0.4032 C   0  0  0  0  0  0  0  0  0  0  0  0
   -1.9261   -0.0882   -1.4808 O   0  0  0  0  0  0  0  0  0  0  0  0
   -3.3525   -0.7215    0.2935 C   0  0  0  0  0  0  0  0  0  0  0  0
   -3.1217   -0.6317    1.8200 C   0  0  0  0  0  0  0  0  0  0  0  0
   -4.1246   -1.9425   -0.0930 C   0  0  0  0  0  0  0  0  0  0  0  0
   -4.2096    0.4444   -0.0143 C   0  0  0  0  0  0  0  0  0  0  0  0
   -5.4997    0.3445    0.5582 C   0  0  0  0  0  0  0  0  0  0  0  0
   -6.4331    1.3395    0.4525 C   0  0  0  0  0  0  0  0  0  0  0  0
   -6.0666    2.4701   -0.2441 C   0  0  0  0  0  0  0  0  0  0  0  0
   -4.8248    2.5882   -0.8045 C   0  0  0  0  0  0  0  0  0  0  0  0
   -3.8810    1.5602   -0.6900 C   0  0  0  0  0  0  0  0  0  0  0  0
   -4.4783    3.8352   -1.5500 C   0  0  0  0  0  0  0  0  0  0  0  0
   -5.5276    4.0854   -2.4272 F   0  0  0  0  0  0  0  0  0  0  0  0
   -3.2688    3.6709   -2.2168 F   0  0  0  0  0  0  0  0  0  0  0  0
   -4.4078    4.8528   -0.6535 F   0  0  0  0  0  0  0  0  0  0  0  0
   -7.7966    1.2879    1.0496 C   0  0  0  0  0  0  0  0  0  0  0  0
   -8.6200    2.0980    0.3254 F   0  0  0  0  0  0  0  0  0  0  0  0
   -8.2444    0.0229    1.2568 F   0  0  0  0  0  0  0  0  0  0  0  0
   -7.6554    1.9046    2.3060 F   0  0  0  0  0  0  0  0  0  0  0  0
    3.8234    1.7413   -0.1845 N   0  0  0  0  0  0  0  0  0  0  0  0
    4.4331    1.9565    1.1591 C   0  0  0  0  0  0  0  0  0  0  0  0
    5.8828    1.6414    1.1292 C   0  0  0  0  0  0  0  0  0  0  0  0
    6.5740    2.2361   -0.0006 N   0  0  0  0  0  0  0  0  0  0  0  0
    5.9657    1.8947   -1.2437 C   0  0  0  0  0  0  0  0  0  0  0  0
    4.4957    2.3405   -1.2812 C   0  0  0  0  0  0  0  0  0  0  0  0
    6.8284    3.6448    0.1974 C   0  0  0  0  0  0  0  0  0  0  0  0
    2.6902   -2.5874   -2.5754 H   0  0  0  0  0  0  0  0  0  0  0  0
    1.3439   -3.7909   -2.9066 H   0  0  0  0  0  0  0  0  0  0  0  0
    0.8941   -2.1557   -2.3348 H   0  0  0  0  0  0  0  0  0  0  0  0
    2.0494   -5.5023   -1.4904 H   0  0  0  0  0  0  0  0  0  0  0  0
    2.2703   -6.4214    0.7359 H   0  0  0  0  0  0  0  0  0  0  0  0
    2.1704   -4.8992    2.6682 H   0  0  0  0  0  0  0  0  0  0  0  0
    1.8421   -2.4337    2.3434 H   0  0  0  0  0  0  0  0  0  0  0  0
    3.7111   -0.8526   -0.0514 H   0  0  0  0  0  0  0  0  0  0  0  0
   -0.6695    1.2695   -0.2493 H   0  0  0  0  0  0  0  0  0  0  0  0
   -0.7033   -2.3676    1.9177 H   0  0  0  0  0  0  0  0  0  0  0  0
   -0.7055   -3.4445    0.3867 H   0  0  0  0  0  0  0  0  0  0  0  0
   -2.1614   -2.7545    1.0402 H   0  0  0  0  0  0  0  0  0  0  0  0
   -2.0496   -0.4588    2.0257 H   0  0  0  0  0  0  0  0  0  0  0  0
   -3.5970   -1.4649    2.3539 H   0  0  0  0  0  0  0  0  0  0  0  0
   -3.6158    0.2917    2.2394 H   0  0  0  0  0  0  0  0  0  0  0  0
   -4.4905   -2.5281    0.8082 H   0  0  0  0  0  0  0  0  0  0  0  0
   -3.6074   -2.6020   -0.8153 H   0  0  0  0  0  0  0  0  0  0  0  0
   -5.0985   -1.7008   -0.6157 H   0  0  0  0  0  0  0  0  0  0  0  0
   -5.8044   -0.5377    1.1097 H   0  0  0  0  0  0  0  0  0  0  0  0
   -6.8240    3.2569   -0.3230 H   0  0  0  0  0  0  0  0  0  0  0  0
   -2.9412    1.7296   -1.1412 H   0  0  0  0  0  0  0  0  0  0  0  0
    3.9270    1.2756    1.8812 H   0  0  0  0  0  0  0  0  0  0  0  0
    4.2758    3.0145    1.3954 H   0  0  0  0  0  0  0  0  0  0  0  0
    6.3561    1.9780    2.0743 H   0  0  0  0  0  0  0  0  0  0  0  0
    5.9983    0.5503    1.0484 H   0  0  0  0  0  0  0  0  0  0  0  0
    6.5479    2.2966   -2.0706 H   0  0  0  0  0  0  0  0  0  0  0  0
    5.9238    0.7827   -1.2890 H   0  0  0  0  0  0  0  0  0  0  0  0
    4.4768    3.4578   -1.1303 H   0  0  0  0  0  0  0  0  0  0  0  0
    4.0682    2.1308   -2.2630 H   0  0  0  0  0  0  0  0  0  0  0  0
    6.2490    4.3096   -0.4476 H   0  0  0  0  0  0  0  0  0  0  0  0
    6.7289    3.9568    1.2628 H   0  0  0  0  0  0  0  0  0  0  0  0
    7.9037    3.7964   -0.0283 H   0  0  0  0  0  0  0  0  0  0  0  0
  1  2  1  0
  2  3  2  0
  3  4  1  0
  4  5  2  0
  5  6  1  0
  6  7  2  0
  2  7  1  0
  7  8  1  0
  8  9  2  0
  9 10  1  0
 10 11  2  0
 11 12  1  0
 12 13  2  0
  8 13  1  0
 13 14  1  0
 14 15  1  0
 14 16  1  0
 16 17  2  0
 16 18  1  0
 18 19  1  0
 18 20  1  0
 18 21  1  0
 21 22  2  0
 22 23  1  0
 23 24  2  0
 24 25  1  0
 25 26  2  0
 21 26  1  0
 25 27  1  0
 27 28  1  0
 27 29  1  0
 27 30  1  0
 23 31  1  0
 31 32  1  0
 31 33  1  0
 31 34  1  0
 10 35  1  0
 35 36  1  0
 36 37  1  0
 37 38  1  0
 38 39  1  0
 39 40  1  0
 35 40  1  0
 38 41  1  0
  1 42  1  0
  1 43  1  0
  1 44  1  0
  3 45  1  0
  4 46  1  0
  5 47  1  0
  6 48  1  0
  9 49  1  0
 12 50  1  0
 15 51  1  0
 15 52  1  0
 15 53  1  0
 19 54  1  0
 19 55  1  0
 19 56  1  0
 20 57  1  0
 20 58  1  0
 20 59  1  0
 22 60  1  0
 24 61  1  0
 26 62  1  0
 36 63  1  0
 36 64  1  0
 37 65  1  0
 37 66  1  0
 39 67  1  0
 39 68  1  0
 40 69  1  0
 40 70  1  0
 41 71  1  0
 41 72  1  0
 41 73  1  0
M  END

