310264948
     RDKit          3D

 48 48  0  0  1  0  0  0  0  0999 V2000
   -1.5598   -0.7194    0.3068 N   0  0  0  0  0  0  0  0  0  0  0  0
   -0.3355   -0.1310   -0.1697 C   0  0  0  0  0  0  0  0  0  0  0  0
   -2.8380   -0.1756    0.1585 C   0  0  0  0  0  0  0  0  0  0  0  0
    0.9183   -0.8332    0.0552 C   0  0  0  0  0  0  0  0  0  0  0  0
   -0.5104    0.9724   -0.7469 O   0  0  0  0  0  0  0  0  0  0  0  0
    2.1027   -0.0840    0.2756 N   0  0  0  0  0  0  0  0  0  0  0  0
   -3.2306    0.8482    0.9875 C   0  0  0  0  0  0  0  0  0  0  0  0
   -3.7525   -0.6471   -0.7679 C   0  0  0  0  0  0  0  0  0  0  0  0
   -5.4293    0.9053   -0.0447 C   0  0  0  0  0  0  0  0  0  0  0  0
    1.1735   -1.7212   -1.1677 C   0  0  0  0  0  0  0  0  0  0  0  0
    2.9268   -0.6404    1.3462 C   0  0  0  0  0  0  0  0  0  0  0  0
    1.8994    1.3172    0.4856 C   0  0  0  0  0  0  0  0  0  0  0  0
   -4.5162    1.3754    0.8788 C   0  0  0  0  0  0  0  0  0  0  0  0
   -5.0283   -0.1300   -0.8830 C   0  0  0  0  0  0  0  0  0  0  0  0
   -3.3684   -1.7443   -1.6698 C   0  0  0  0  0  0  0  0  0  0  0  0
   -2.3542    1.4619    2.0035 C   0  0  0  0  0  0  0  0  0  0  0  0
    3.1524    2.1068    0.7845 C   0  0  0  0  0  0  0  0  0  0  0  0
    3.5575   -1.9461    1.0109 C   0  0  0  0  0  0  0  0  0  0  0  0
    1.2767   -0.8807   -2.4233 C   0  0  0  0  0  0  0  0  0  0  0  0
    4.1126    1.9813   -0.3589 C   0  0  0  0  0  0  0  0  0  0  0  0
   -1.4850   -1.6371    0.8060 H   0  0  0  0  0  0  0  0  0  0  0  0
    0.7917   -1.5426    0.8974 H   0  0  0  0  0  0  0  0  0  0  0  0
   -6.4264    1.3443   -0.0930 H   0  0  0  0  0  0  0  0  0  0  0  0
    2.1051   -2.2958   -1.0801 H   0  0  0  0  0  0  0  0  0  0  0  0
    0.3515   -2.4521   -1.2936 H   0  0  0  0  0  0  0  0  0  0  0  0
    3.7625    0.0617    1.5318 H   0  0  0  0  0  0  0  0  0  0  0  0
    2.2656   -0.7526    2.2400 H   0  0  0  0  0  0  0  0  0  0  0  0
    1.2091    1.4600    1.3376 H   0  0  0  0  0  0  0  0  0  0  0  0
    1.5129    1.7860   -0.4682 H   0  0  0  0  0  0  0  0  0  0  0  0
   -4.8621    2.1853    1.5187 H   0  0  0  0  0  0  0  0  0  0  0  0
   -5.7505   -0.5003   -1.6105 H   0  0  0  0  0  0  0  0  0  0  0  0
   -2.5682   -2.3318   -1.1997 H   0  0  0  0  0  0  0  0  0  0  0  0
   -4.2756   -2.3693   -1.8901 H   0  0  0  0  0  0  0  0  0  0  0  0
   -3.0292   -1.3088   -2.6393 H   0  0  0  0  0  0  0  0  0  0  0  0
   -2.3709    2.5570    1.8200 H   0  0  0  0  0  0  0  0  0  0  0  0
   -1.3243    1.0568    1.9160 H   0  0  0  0  0  0  0  0  0  0  0  0
   -2.7478    1.2724    3.0158 H   0  0  0  0  0  0  0  0  0  0  0  0
    3.5572    2.0125    1.7816 H   0  0  0  0  0  0  0  0  0  0  0  0
    2.7953    3.1900    0.7387 H   0  0  0  0  0  0  0  0  0  0  0  0
    4.3769   -2.0901    1.7862 H   0  0  0  0  0  0  0  0  0  0  0  0
    4.1370   -1.8398    0.0628 H   0  0  0  0  0  0  0  0  0  0  0  0
    2.9420   -2.8348    1.0892 H   0  0  0  0  0  0  0  0  0  0  0  0
    0.2741   -0.4503   -2.6342 H   0  0  0  0  0  0  0  0  0  0  0  0
    2.0829   -0.1491   -2.3528 H   0  0  0  0  0  0  0  0  0  0  0  0
    1.5287   -1.5646   -3.2583 H   0  0  0  0  0  0  0  0  0  0  0  0
    3.5505    2.3305   -1.2706 H   0  0  0  0  0  0  0  0  0  0  0  0
    4.4155    0.9384   -0.5888 H   0  0  0  0  0  0  0  0  0  0  0  0
    4.9847    2.6086   -0.2236 H   0  0  0  0  0  0  0  0  0  0  0  0
  1  2  1  0
  1  3  1  0
  2  4  1  0
  2  5  2  0
  4  6  1  0
  3  7  2  0
  3  8  1  0
  9 14  1  0
  4 10  1  0
  6 11  1  0
  6 12  1  0
  7 13  1  0
  8 14  2  0
  8 15  1  0
  7 16  1  0
 12 17  1  0
 11 18  1  0
 10 19  1  0
 17 20  1  0
  9 13  2  0
  1 21  1  0
  4 22  1  0
  9 23  1  0
 10 24  1  0
 10 25  1  0
 11 26  1  0
 11 27  1  0
 12 28  1  0
 12 29  1  0
 13 30  1  0
 14 31  1  0
 15 32  1  0
 15 33  1  0
 15 34  1  0
 16 35  1  0
 16 36  1  0
 16 37  1  0
 17 38  1  0
 17 39  1  0
 18 40  1  0
 18 41  1  0
 18 42  1  0
 19 43  1  0
 19 44  1  0
 19 45  1  0
 20 46  1  0
 20 47  1  0
 20 48  1  0
M  END

