310264939
     RDKit          3D

 70 74  0  0  1  0  0  0  0  0999 V2000
   -0.1325    2.8692   -0.4040 C   0  0  0  0  0  0  0  0  0  0  0  0
  -10.1940   -2.0887   -0.3843 C   0  0  0  0  0  0  0  0  0  0  0  0
    6.1242   -3.2525   -1.6908 C   0  0  0  0  0  0  0  0  0  0  0  0
   -9.8503   -1.4030    0.7618 C   0  0  0  0  0  0  0  0  0  0  0  0
   -9.1947   -2.3275   -1.3047 C   0  0  0  0  0  0  0  0  0  0  0  0
    5.9089   -3.2735   -0.3384 C   0  0  0  0  0  0  0  0  0  0  0  0
    6.3329   -2.0352   -2.2916 C   0  0  0  0  0  0  0  0  0  0  0  0
   -8.5569   -0.9745    0.9757 C   0  0  0  0  0  0  0  0  0  0  0  0
   -7.9010   -1.9004   -1.0937 C   0  0  0  0  0  0  0  0  0  0  0  0
    5.9019   -2.1075    0.3973 C   0  0  0  0  0  0  0  0  0  0  0  0
    6.3273   -0.8543   -1.5554 C   0  0  0  0  0  0  0  0  0  0  0  0
   -5.6847   -0.6940    1.5758 C   0  0  0  0  0  0  0  0  0  0  0  0
   -5.3970   -0.3976   -0.7701 C   0  0  0  0  0  0  0  0  0  0  0  0
   -4.4000   -0.2648    1.8215 C   0  0  0  0  0  0  0  0  0  0  0  0
   -4.1185    0.0283   -0.5090 C   0  0  0  0  0  0  0  0  0  0  0  0
    1.0619   -0.5452   -0.2375 C   0  0  0  0  0  0  0  0  0  0  0  0
    1.0741   -0.1140    1.2163 C   0  0  0  0  0  0  0  0  0  0  0  0
    1.9869    1.4224   -1.3224 C   0  0  0  0  0  0  0  0  0  0  0  0
    1.8225    2.1831    1.0558 C   0  0  0  0  0  0  0  0  0  0  0  0
   -1.4512    0.9449   -0.2083 C   0  0  0  0  0  0  0  0  0  0  0  0
    7.4781    0.9785    0.6951 C   0  0  0  0  0  0  0  0  0  0  0  0
   -7.5442   -1.2151    0.0456 C   0  0  0  0  0  0  0  0  0  0  0  0
   -6.1812   -0.7596    0.2786 C   0  0  0  0  0  0  0  0  0  0  0  0
    6.1091   -0.8791   -0.1870 C   0  0  0  0  0  0  0  0  0  0  0  0
   -3.6115    0.0988    0.7739 C   0  0  0  0  0  0  0  0  0  0  0  0
    0.7208    0.7116   -1.0124 C   0  0  2  0  0  0  0  0  0  0  0  0
    0.5715    1.2892    1.1328 C   0  0  1  0  0  0  0  0  0  0  0  0
    2.7257    1.8558   -0.0753 C   0  0  1  0  0  0  0  0  0  0  0  0
    6.0906    0.3280    0.6446 C   0  0  2  0  0  0  0  0  0  0  0  0
   -2.2223    0.5700    0.9617 C   0  0  0  0  0  0  0  0  0  0  0  0
    5.0603    1.2959    0.2606 C   0  0  0  0  0  0  0  0  0  0  0  0
   -0.1415    1.4434   -0.0815 N   0  0  0  0  0  4  0  0  0  0  0  0
    7.3469    2.1029    1.5026 O   0  0  0  0  0  0  0  0  0  0  0  0
   -1.8177    0.6091    2.1214 O   0  0  0  0  0  0  0  0  0  0  0  0
    5.3842    2.4469   -0.0957 O   0  0  0  0  0  0  0  0  0  0  0  0
    3.7332    0.9402    0.2912 O   0  0  0  0  0  0  0  0  0  0  0  0
   -0.4430    3.3903    0.5319 H   0  0  0  0  0  0  0  0  0  0  0  0
   -0.9287    3.0901   -1.1673 H   0  0  0  0  0  0  0  0  0  0  0  0
    0.8282    3.2519   -0.7352 H   0  0  0  0  0  0  0  0  0  0  0  0
  -11.2125   -2.4313   -0.5626 H   0  0  0  0  0  0  0  0  0  0  0  0
    6.1252   -4.1922   -2.2549 H   0  0  0  0  0  0  0  0  0  0  0  0
  -10.5979   -1.1908    1.5133 H   0  0  0  0  0  0  0  0  0  0  0  0
   -9.4766   -2.8693   -2.2051 H   0  0  0  0  0  0  0  0  0  0  0  0
    5.7447   -4.2436    0.1269 H   0  0  0  0  0  0  0  0  0  0  0  0
    6.5064   -2.0135   -3.3729 H   0  0  0  0  0  0  0  0  0  0  0  0
   -8.2834   -0.4350    1.8756 H   0  0  0  0  0  0  0  0  0  0  0  0
   -7.1219   -2.0994   -1.8356 H   0  0  0  0  0  0  0  0  0  0  0  0
    5.7255   -2.1893    1.4668 H   0  0  0  0  0  0  0  0  0  0  0  0
    6.4885    0.1021   -2.0100 H   0  0  0  0  0  0  0  0  0  0  0  0
   -6.3247   -0.9873    2.4140 H   0  0  0  0  0  0  0  0  0  0  0  0
   -5.7751   -0.4464   -1.7710 H   0  0  0  0  0  0  0  0  0  0  0  0
   -3.9849   -0.2030    2.8241 H   0  0  0  0  0  0  0  0  0  0  0  0
   -3.4815    0.3216   -1.3566 H   0  0  0  0  0  0  0  0  0  0  0  0
    0.2970   -1.3297   -0.3361 H   0  0  0  0  0  0  0  0  0  0  0  0
    2.0617   -0.8809   -0.5811 H   0  0  0  0  0  0  0  0  0  0  0  0
    2.1356   -0.1463    1.6009 H   0  0  0  0  0  0  0  0  0  0  0  0
    0.5176   -0.7872    1.8724 H   0  0  0  0  0  0  0  0  0  0  0  0
    1.9161    2.2185   -2.0915 H   0  0  0  0  0  0  0  0  0  0  0  0
    2.6657    0.6538   -1.8042 H   0  0  0  0  0  0  0  0  0  0  0  0
    2.3776    1.9234    2.0067 H   0  0  0  0  0  0  0  0  0  0  0  0
    1.5761    3.2477    1.1567 H   0  0  0  0  0  0  0  0  0  0  0  0
   -1.4239    0.0743   -0.9644 H   0  0  0  0  0  0  0  0  0  0  0  0
   -2.0212    1.7172   -0.8438 H   0  0  0  0  0  0  0  0  0  0  0  0
    8.1397    0.2164    1.1755 H   0  0  0  0  0  0  0  0  0  0  0  0
    7.8102    1.2582   -0.3052 H   0  0  0  0  0  0  0  0  0  0  0  0
    0.1663    0.5080   -1.9311 H   0  0  0  0  0  0  0  0  0  0  0  0
    0.0538    1.6580    2.0442 H   0  0  0  0  0  0  0  0  0  0  0  0
    3.2433    2.8140   -0.3601 H   0  0  0  0  0  0  0  0  0  0  0  0
    5.8840    0.0323    1.6965 H   0  0  0  0  0  0  0  0  0  0  0  0
    7.4500    2.9358    0.9672 H   0  0  0  0  0  0  0  0  0  0  0  0
  2  4  2  0
  2  5  1  0
  3  6  2  0
  3  7  1  0
  4  8  1  0
  5  9  2  0
  6 10  1  0
  7 11  2  0
 12 14  2  0
 13 15  1  0
 16 17  1  0
  8 22  2  0
  9 22  1  0
 12 23  1  0
 13 23  2  0
 22 23  1  0
 10 24  2  0
 11 24  1  0
 14 25  1  0
 15 25  2  0
 16 26  1  0
 18 26  1  0
 17 27  1  0
 19 27  1  0
 18 28  1  0
 19 28  1  0
 21 29  1  0
 24 29  1  0
 20 30  1  0
 25 30  1  0
 29 31  1  0
  1 32  1  0
 20 32  1  0
 26 32  1  0
 27 32  1  0
 21 33  1  0
 30 34  2  0
 31 35  2  0
 28 36  1  0
 31 36  1  0
  1 37  1  0
  1 38  1  0
  1 39  1  0
  2 40  1  0
  3 41  1  0
  4 42  1  0
  5 43  1  0
  6 44  1  0
  7 45  1  0
  8 46  1  0
  9 47  1  0
 10 48  1  0
 11 49  1  0
 12 50  1  0
 13 51  1  0
 14 52  1  0
 15 53  1  0
 16 54  1  0
 16 55  1  0
 17 56  1  0
 17 57  1  0
 18 58  1  0
 18 59  1  0
 19 60  1  0
 19 61  1  0
 20 62  1  0
 20 63  1  0
 21 64  1  0
 21 65  1  0
 26 66  1  6
 27 67  1  1
 28 68  1  6
 29 69  1  1
 33 70  1  0
M  CHG  1  32   1
M  END

