310264879
     RDKit          3D

 19 18  0  0  0  0  0  0  0  0999 V2000
    1.4424   -0.4897   -1.9335 O   0  0  0  0  0  1  0  0  0  0  0  0
    2.0235   -0.2383   -0.7042 C   0  0  0  0  0  0  0  0  0  0  0  0
    3.2717   -0.2586   -0.6227 O   0  0  0  0  0  0  0  0  0  0  0  0
    1.1690    0.0414    0.4536 C   0  0  0  0  0  0  0  0  0  0  0  0
   -0.2316    0.0166    0.1463 N   0  0  0  0  0  4  0  0  0  0  0  0
   -0.5594    1.1032   -0.7550 C   0  0  0  0  0  0  0  0  0  0  0  0
   -0.6950   -1.2014   -0.4352 C   0  0  0  0  0  0  0  0  0  0  0  0
   -0.9667    0.2549    1.3761 C   0  0  0  0  0  0  0  0  0  0  0  0
    1.4198   -0.6916    1.2451 H   0  0  0  0  0  0  0  0  0  0  0  0
    1.4052    1.0481    0.8575 H   0  0  0  0  0  0  0  0  0  0  0  0
    0.0320    1.9951   -0.5100 H   0  0  0  0  0  0  0  0  0  0  0  0
   -0.5102    0.7872   -1.7981 H   0  0  0  0  0  0  0  0  0  0  0  0
   -1.6395    1.3592   -0.5591 H   0  0  0  0  0  0  0  0  0  0  0  0
   -0.0964   -2.0925   -0.1559 H   0  0  0  0  0  0  0  0  0  0  0  0
   -1.7244   -1.3986   -0.0746 H   0  0  0  0  0  0  0  0  0  0  0  0
   -0.7525   -1.1890   -1.5403 H   0  0  0  0  0  0  0  0  0  0  0  0
   -1.9144    0.7796    1.1179 H   0  0  0  0  0  0  0  0  0  0  0  0
   -1.2438   -0.7180    1.8050 H   0  0  0  0  0  0  0  0  0  0  0  0
   -0.4297    0.8925    2.0871 H   0  0  0  0  0  0  0  0  0  0  0  0
  1  2  1  0
  2  3  2  0
  2  4  1  0
  4  5  1  0
  5  6  1  0
  5  7  1  0
  5  8  1  0
  4  9  1  0
  4 10  1  0
  6 11  1  0
  6 12  1  0
  6 13  1  0
  7 14  1  0
  7 15  1  0
  7 16  1  0
  8 17  1  0
  8 18  1  0
  8 19  1  0
M  CHG  2   1  -1   5   1
M  END

