310264980
     RDKit          3D

 92 92  0  0  1  0  0  0  0  0999 V2000
    5.4044    1.4232    0.5412 C   0  0  0  0  0  0  0  0  0  0  0  0
    5.2249    0.3894   -0.3479 C   0  0  0  0  0  0  0  0  0  0  0  0
    4.1082   -0.3947   -0.2855 C   0  0  0  0  0  0  0  0  0  0  0  0
    3.0799   -0.2261    0.6540 C   0  0  0  0  0  0  0  0  0  0  0  0
    3.2787    0.8080    1.5307 C   0  0  0  0  0  0  0  0  0  0  0  0
    4.4227    1.6236    1.4784 C   0  0  0  0  0  0  0  0  0  0  0  0
    6.5412    2.2246    0.4799 O   0  0  0  0  0  0  0  0  0  0  0  0
    6.6644    3.2837    1.4356 C   0  0  0  0  0  0  0  0  0  0  0  0
    6.2327    0.1990   -1.2949 O   0  0  0  0  0  0  0  0  0  0  0  0
    6.1808   -0.8181   -2.2644 C   0  0  0  0  0  0  0  0  0  0  0  0
    7.4453   -0.7040   -3.1094 C   0  0  0  0  0  0  0  0  0  0  0  0
    8.6133   -0.8819   -2.1720 C   0  0  0  0  0  0  0  0  0  0  0  0
    9.8433   -0.8097   -2.8025 O   0  0  0  0  0  0  0  0  0  0  0  0
   10.1024    0.3812   -3.4360 C   0  0  0  0  0  0  0  0  0  0  0  0
    1.9328   -1.1306    0.6766 C   0  0  0  0  0  0  0  0  0  0  0  0
    0.8437   -0.9056   -0.2937 C   0  0  1  0  0  0  0  0  0  0  0  0
    0.0767    0.3427   -0.2759 C   0  0  0  0  0  0  0  0  0  0  0  0
    1.2662   -1.2183   -1.7347 C   0  0  0  0  0  0  0  0  0  0  0  0
    0.0230   -1.0868   -2.6007 C   0  0  0  0  0  0  0  0  0  0  0  0
    1.6948   -2.6667   -1.8800 C   0  0  0  0  0  0  0  0  0  0  0  0
   -0.7498    0.6845    0.8989 C   0  0  1  0  0  0  0  0  0  0  0  0
   -1.8408   -0.3178    1.2102 C   0  0  1  0  0  0  0  0  0  0  0  0
   -0.0184    1.0701    2.0361 N   0  0  0  0  0  0  0  0  0  0  0  0
   -1.2461   -1.4400    1.7668 O   0  0  0  0  0  0  0  0  0  0  0  0
   -2.7978    0.2490    2.2339 C   0  0  0  0  0  0  0  0  0  0  0  0
   -3.8845   -0.7802    2.5260 C   0  0  2  0  0  0  0  0  0  0  0  0
   -4.6448   -1.1363    1.3313 C   0  0  0  0  0  0  0  0  0  0  0  0
   -4.8059   -0.1955    3.6014 C   0  0  0  0  0  0  0  0  0  0  0  0
   -3.9167    0.0582    4.8108 C   0  0  0  0  0  0  0  0  0  0  0  0
   -5.8566   -1.1853    3.9985 C   0  0  0  0  0  0  0  0  0  0  0  0
   -5.3021   -0.1396    0.5779 N   0  0  0  0  0  0  0  0  0  0  0  0
   -4.7130   -2.3372    0.9741 O   0  0  0  0  0  0  0  0  0  0  0  0
   -6.0702   -0.4317   -0.6125 C   0  0  0  0  0  0  0  0  0  0  0  0
   -5.5608    1.7810   -1.5937 C   0  0  0  0  0  0  0  0  0  0  0  0
   -5.9423    2.9979   -2.2075 N   0  0  0  0  0  0  0  0  0  0  0  0
   -4.3559    1.5140   -1.3765 O   0  0  0  0  0  0  0  0  0  0  0  0
   -6.6452    0.8144   -1.2084 C   0  0  0  0  0  0  0  0  0  0  0  0
   -7.5724    1.4757   -0.2270 C   0  0  0  0  0  0  0  0  0  0  0  0
   -7.4281    0.5093   -2.4552 C   0  0  0  0  0  0  0  0  0  0  0  0
    4.0040   -1.1910   -0.9946 H   0  0  0  0  0  0  0  0  0  0  0  0
    2.5721    1.0249    2.3133 H   0  0  0  0  0  0  0  0  0  0  0  0
    4.5590    2.4372    2.1815 H   0  0  0  0  0  0  0  0  0  0  0  0
    6.5722    2.8775    2.4797 H   0  0  0  0  0  0  0  0  0  0  0  0
    7.6332    3.7918    1.3126 H   0  0  0  0  0  0  0  0  0  0  0  0
    5.8076    3.9661    1.2990 H   0  0  0  0  0  0  0  0  0  0  0  0
    6.2759   -1.7953   -1.7231 H   0  0  0  0  0  0  0  0  0  0  0  0
    5.2700   -0.8145   -2.8626 H   0  0  0  0  0  0  0  0  0  0  0  0
    7.4765    0.2808   -3.6153 H   0  0  0  0  0  0  0  0  0  0  0  0
    7.4311   -1.5490   -3.8182 H   0  0  0  0  0  0  0  0  0  0  0  0
    8.5946   -0.1045   -1.3531 H   0  0  0  0  0  0  0  0  0  0  0  0
    8.5687   -1.8951   -1.7001 H   0  0  0  0  0  0  0  0  0  0  0  0
    9.3696    0.5817   -4.2154 H   0  0  0  0  0  0  0  0  0  0  0  0
   10.1398    1.1832   -2.6637 H   0  0  0  0  0  0  0  0  0  0  0  0
   11.0977    0.3109   -3.9170 H   0  0  0  0  0  0  0  0  0  0  0  0
    1.4559   -1.0734    1.7064 H   0  0  0  0  0  0  0  0  0  0  0  0
    2.2290   -2.2133    0.6191 H   0  0  0  0  0  0  0  0  0  0  0  0
    0.1109   -1.7795   -0.0888 H   0  0  0  0  0  0  0  0  0  0  0  0
   -0.5229    0.5088   -1.2220 H   0  0  0  0  0  0  0  0  0  0  0  0
    0.8464    1.1895   -0.3617 H   0  0  0  0  0  0  0  0  0  0  0  0
    2.0045   -0.5037   -2.1174 H   0  0  0  0  0  0  0  0  0  0  0  0
   -0.8567   -1.3042   -1.9666 H   0  0  0  0  0  0  0  0  0  0  0  0
   -0.1072   -0.1016   -3.0550 H   0  0  0  0  0  0  0  0  0  0  0  0
   -0.0001   -1.8993   -3.3798 H   0  0  0  0  0  0  0  0  0  0  0  0
    0.7670   -3.2713   -1.8181 H   0  0  0  0  0  0  0  0  0  0  0  0
    2.4837   -2.9913   -1.2167 H   0  0  0  0  0  0  0  0  0  0  0  0
    2.0665   -2.7677   -2.9218 H   0  0  0  0  0  0  0  0  0  0  0  0
   -1.3430    1.6191    0.5860 H   0  0  0  0  0  0  0  0  0  0  0  0
   -2.4492   -0.5596    0.3149 H   0  0  0  0  0  0  0  0  0  0  0  0
    0.2606    2.0692    2.0985 H   0  0  0  0  0  0  0  0  0  0  0  0
   -0.2667    0.6238    2.9277 H   0  0  0  0  0  0  0  0  0  0  0  0
   -1.8040   -2.2457    1.7483 H   0  0  0  0  0  0  0  0  0  0  0  0
   -2.2989    0.5932    3.1379 H   0  0  0  0  0  0  0  0  0  0  0  0
   -3.3210    1.1140    1.7621 H   0  0  0  0  0  0  0  0  0  0  0  0
   -3.4074   -1.6657    3.0057 H   0  0  0  0  0  0  0  0  0  0  0  0
   -5.2612    0.7586    3.2502 H   0  0  0  0  0  0  0  0  0  0  0  0
   -4.5534   -0.0783    5.7083 H   0  0  0  0  0  0  0  0  0  0  0  0
   -3.4309    1.0334    4.7886 H   0  0  0  0  0  0  0  0  0  0  0  0
   -3.1615   -0.7682    4.8314 H   0  0  0  0  0  0  0  0  0  0  0  0
   -5.4545   -2.2261    3.9700 H   0  0  0  0  0  0  0  0  0  0  0  0
   -6.7995   -1.0961    3.4295 H   0  0  0  0  0  0  0  0  0  0  0  0
   -6.1344   -1.0221    5.0773 H   0  0  0  0  0  0  0  0  0  0  0  0
   -5.2323    0.8492    0.8899 H   0  0  0  0  0  0  0  0  0  0  0  0
   -6.9186   -1.1143   -0.3898 H   0  0  0  0  0  0  0  0  0  0  0  0
   -5.4189   -0.9130   -1.3755 H   0  0  0  0  0  0  0  0  0  0  0  0
   -5.2323    3.5174   -2.7633 H   0  0  0  0  0  0  0  0  0  0  0  0
   -6.8935    3.4108   -2.1395 H   0  0  0  0  0  0  0  0  0  0  0  0
   -8.6315    1.5046   -0.5841 H   0  0  0  0  0  0  0  0  0  0  0  0
   -7.2573    2.5398   -0.0799 H   0  0  0  0  0  0  0  0  0  0  0  0
   -7.6096    0.9467    0.7514 H   0  0  0  0  0  0  0  0  0  0  0  0
   -7.9092   -0.5037   -2.4237 H   0  0  0  0  0  0  0  0  0  0  0  0
   -6.7684    0.4965   -3.3540 H   0  0  0  0  0  0  0  0  0  0  0  0
   -8.1808    1.3203   -2.6520 H   0  0  0  0  0  0  0  0  0  0  0  0
  4  5  2  0
 18 20  1  0
  9 10  1  0
 17 21  1  0
  2  3  2  0
 21 22  1  0
 10 11  1  0
 21 23  1  0
  5  6  1  0
 22 24  1  0
 11 12  1  0
 22 25  1  0
  1  6  2  0
 25 26  1  0
 12 13  1  0
 26 27  1  0
  1  2  1  0
 26 28  1  0
 13 14  1  0
 28 29  1  0
  1  7  1  0
 28 30  1  0
  4 15  1  0
 27 31  1  0
  3  4  1  0
 27 32  2  0
 15 16  1  0
 31 33  1  0
  7  8  1  0
 16 17  1  0
 16 18  1  0
  2  9  1  0
 18 19  1  0
 33 37  1  0
 34 37  1  0
 34 35  1  0
 34 36  2  0
 37 38  1  0
 37 39  1  0
  3 40  1  0
  5 41  1  0
  6 42  1  0
  8 43  1  0
  8 44  1  0
  8 45  1  0
 10 46  1  0
 10 47  1  0
 11 48  1  0
 11 49  1  0
 12 50  1  0
 12 51  1  0
 14 52  1  0
 14 53  1  0
 14 54  1  0
 15 55  1  0
 15 56  1  0
 16 57  1  1
 17 58  1  0
 17 59  1  0
 18 60  1  0
 19 61  1  0
 19 62  1  0
 19 63  1  0
 20 64  1  0
 20 65  1  0
 20 66  1  0
 21 67  1  6
 22 68  1  6
 23 69  1  0
 23 70  1  0
 24 71  1  0
 25 72  1  0
 25 73  1  0
 26 74  1  1
 28 75  1  0
 29 76  1  0
 29 77  1  0
 29 78  1  0
 30 79  1  0
 30 80  1  0
 30 81  1  0
 31 82  1  0
 33 83  1  0
 33 84  1  0
 35 85  1  0
 35 86  1  0
 38 87  1  0
 38 88  1  0
 38 89  1  0
 39 90  1  0
 39 91  1  0
 39 92  1  0
M  END

