310265175
     RDKit          3D

 31 32  0  0  0  0  0  0  0  0999 V2000
    1.0344   -0.5331   -0.2358 N   0  0  0  0  0  4  0  0  0  0  0  0
    2.3477   -0.0797   -0.3937 N   0  0  0  0  0  0  0  0  0  0  0  0
    0.2316   -0.4198    0.8533 C   0  0  0  0  0  0  0  0  0  0  0  0
    0.2911   -1.1779   -1.1332 N   0  0  0  0  0  0  0  0  0  0  0  0
    2.9619    0.6035    0.7306 C   0  0  0  0  0  0  0  0  0  0  0  0
    3.0170   -0.3071   -1.6396 C   0  0  0  0  0  0  0  0  0  0  0  0
   -0.9886   -1.0080    0.5757 C   0  0  0  0  0  0  0  0  0  0  0  0
   -0.8781   -1.4490   -0.6555 O   0  0  0  0  0  0  0  0  0  0  0  0
    4.4686    0.5129    0.6963 C   0  0  0  0  0  0  0  0  0  0  0  0
    4.4942    0.0805   -1.5000 C   0  0  0  0  0  0  0  0  0  0  0  0
   -2.0708   -1.0760    1.4827 N   0  0  0  0  0  2  0  0  0  0  0  0
    4.9186   -0.3759   -0.2660 O   0  0  0  0  0  0  0  0  0  0  0  0
   -3.3557   -0.5651    1.2541 C   0  0  0  0  0  0  0  0  0  0  0  0
   -3.6496    0.6544    0.6991 O   0  0  0  0  0  0  0  0  0  0  0  0
   -4.3471   -1.2968    1.5911 O   0  0  0  0  0  0  0  0  0  0  0  0
   -5.0072    1.0778    0.5107 C   0  0  0  0  0  0  0  0  0  0  0  0
   -5.7666    0.1472   -0.3840 C   0  0  0  0  0  0  0  0  0  0  0  0
    0.5416    0.0583    1.7594 H   0  0  0  0  0  0  0  0  0  0  0  0
    2.6025    1.6533    0.8098 H   0  0  0  0  0  0  0  0  0  0  0  0
    2.6203    0.0883    1.6672 H   0  0  0  0  0  0  0  0  0  0  0  0
    2.5677    0.2645   -2.4729 H   0  0  0  0  0  0  0  0  0  0  0  0
    3.0038   -1.3886   -1.9524 H   0  0  0  0  0  0  0  0  0  0  0  0
    4.9004    0.2434    1.6749 H   0  0  0  0  0  0  0  0  0  0  0  0
    4.8596    1.5424    0.4528 H   0  0  0  0  0  0  0  0  0  0  0  0
    4.5282    1.2024   -1.5436 H   0  0  0  0  0  0  0  0  0  0  0  0
    5.0136   -0.3721   -2.3545 H   0  0  0  0  0  0  0  0  0  0  0  0
   -5.0027    2.0881    0.0526 H   0  0  0  0  0  0  0  0  0  0  0  0
   -5.5119    1.1374    1.5180 H   0  0  0  0  0  0  0  0  0  0  0  0
   -6.5736   -0.3720    0.2026 H   0  0  0  0  0  0  0  0  0  0  0  0
   -5.0766   -0.6544   -0.7188 H   0  0  0  0  0  0  0  0  0  0  0  0
   -6.1741    0.6483   -1.2812 H   0  0  0  0  0  0  0  0  0  0  0  0
  1  2  1  0
  1  3  1  0
  1  4  2  0
  2  5  1  0
  2  6  1  0
  3  7  2  0
  4  8  1  0
  5  9  1  0
  6 10  1  0
  7 11  1  0
  9 12  1  0
 11 13  1  0
 13 14  1  0
 13 15  2  0
 14 16  1  0
 16 17  1  0
  7  8  1  0
 10 12  1  0
  3 18  1  0
  5 19  1  0
  5 20  1  0
  6 21  1  0
  6 22  1  0
  9 23  1  0
  9 24  1  0
 10 25  1  0
 10 26  1  0
 16 27  1  0
 16 28  1  0
 17 29  1  0
 17 30  1  0
 17 31  1  0
M  CHG  2   1   1  11  -1
M  END

