310264867
     RDKit          3D

 69 73  0  0  0  0  0  0  0  0999 V2000
   -3.9403   -1.4104    0.4290 N   0  0  0  0  0  0  0  0  0  0  0  0
   -4.3861   -0.4516   -0.4100 C   0  0  0  0  0  0  0  0  0  0  0  0
   -4.8946   -1.1367   -1.5218 C   0  0  0  0  0  0  0  0  0  0  0  0
   -4.7567   -2.5062   -1.3558 C   0  0  0  0  0  0  0  0  0  0  0  0
   -4.1626   -2.6532   -0.1354 C   0  0  0  0  0  0  0  0  0  0  0  0
   -3.2796   -1.2652    1.6860 C   0  0  0  0  0  0  0  0  0  0  0  0
   -4.2828    0.9963   -0.3081 C   0  0  0  0  0  0  0  0  0  0  0  0
   -3.9104   -3.9371    0.2968 C   0  0  0  0  0  0  0  0  0  0  0  0
   -5.0965   -3.5975   -2.1413 C   0  0  0  0  0  0  0  0  0  0  0  0
    5.3188    1.2184    0.3307 N   0  0  0  0  0  0  0  0  0  0  0  0
   -4.0945    1.7373   -1.4639 C   0  0  0  0  0  0  0  0  0  0  0  0
   -4.4805    1.7410    0.8281 C   0  0  0  0  0  0  0  0  0  0  0  0
   -1.7813   -1.1766    1.4973 C   0  0  0  0  0  0  0  0  0  0  0  0
   -4.8488   -4.8823   -1.7210 C   0  0  0  0  0  0  0  0  0  0  0  0
   -5.5576   -0.5436   -2.7041 C   0  0  0  0  0  0  0  0  0  0  0  0
   -4.2487   -5.0199   -0.4843 C   0  0  0  0  0  0  0  0  0  0  0  0
   -4.3088    3.8325   -0.3071 C   0  0  0  0  0  0  0  0  0  0  0  0
    1.0056   -0.9331    1.1494 C   0  0  0  0  0  0  0  0  0  0  0  0
   -4.4969    3.1319    0.8537 C   0  0  0  0  0  0  0  0  0  0  0  0
   -4.1059    3.1373   -1.4772 C   0  0  0  0  0  0  0  0  0  0  0  0
   -1.2094    0.0405    1.2411 C   0  0  0  0  0  0  0  0  0  0  0  0
   -0.9672   -2.2591    1.5783 C   0  0  0  0  0  0  0  0  0  0  0  0
    0.4197   -2.1489    1.4069 C   0  0  0  0  0  0  0  0  0  0  0  0
    0.1750    0.1571    1.0690 C   0  0  0  0  0  0  0  0  0  0  0  0
    2.3514   -0.7761    0.9758 O   0  0  0  0  0  0  0  0  0  0  0  0
    4.4855    0.1219    0.6009 C   0  0  0  0  0  0  0  0  0  0  0  0
   -5.1832   -5.9963   -2.4970 O   0  0  0  0  0  0  0  0  0  0  0  0
   -4.3280    5.2267   -0.2702 O   0  0  0  0  0  0  0  0  0  0  0  0
    3.0059    0.4305    0.7101 C   0  0  0  0  0  0  0  0  0  0  0  0
    5.4852    2.2255    1.3004 C   0  0  0  0  0  0  0  0  0  0  0  0
    5.7773    1.4435   -0.9804 C   0  0  0  0  0  0  0  0  0  0  0  0
    7.1294    0.7385   -1.1525 C   0  0  0  0  0  0  0  0  0  0  0  0
    6.8908    2.3982    1.8076 C   0  0  0  0  0  0  0  0  0  0  0  0
    7.9228    2.1470    0.7127 C   0  0  0  0  0  0  0  0  0  0  0  0
    7.8559    0.7298    0.1926 C   0  0  0  0  0  0  0  0  0  0  0  0
   -3.3953   -2.2530    2.2353 H   0  0  0  0  0  0  0  0  0  0  0  0
   -3.6464   -0.4827    2.3390 H   0  0  0  0  0  0  0  0  0  0  0  0
   -3.4589   -4.1099    1.2507 H   0  0  0  0  0  0  0  0  0  0  0  0
   -5.5612   -3.4020   -3.0919 H   0  0  0  0  0  0  0  0  0  0  0  0
   -3.8894    1.2293   -2.3907 H   0  0  0  0  0  0  0  0  0  0  0  0
   -4.6660    1.2620    1.7582 H   0  0  0  0  0  0  0  0  0  0  0  0
   -6.3586   -1.2692   -3.0466 H   0  0  0  0  0  0  0  0  0  0  0  0
   -5.9918    0.4373   -2.5268 H   0  0  0  0  0  0  0  0  0  0  0  0
   -4.8351   -0.5073   -3.5317 H   0  0  0  0  0  0  0  0  0  0  0  0
   -4.0455   -6.0228   -0.1358 H   0  0  0  0  0  0  0  0  0  0  0  0
   -4.6566    3.6778    1.7788 H   0  0  0  0  0  0  0  0  0  0  0  0
   -3.9587    3.6903   -2.3866 H   0  0  0  0  0  0  0  0  0  0  0  0
   -1.7936    0.9392    1.1673 H   0  0  0  0  0  0  0  0  0  0  0  0
   -1.3783   -3.2396    1.7859 H   0  0  0  0  0  0  0  0  0  0  0  0
    1.0461   -3.0213    1.4753 H   0  0  0  0  0  0  0  0  0  0  0  0
    0.5572    1.1542    0.8687 H   0  0  0  0  0  0  0  0  0  0  0  0
    4.7662   -0.4130    1.5343 H   0  0  0  0  0  0  0  0  0  0  0  0
    4.5911   -0.6188   -0.2275 H   0  0  0  0  0  0  0  0  0  0  0  0
   -6.1111   -6.3824   -2.3509 H   0  0  0  0  0  0  0  0  0  0  0  0
   -5.2466    5.6649   -0.4117 H   0  0  0  0  0  0  0  0  0  0  0  0
    2.8398    1.2099    1.4988 H   0  0  0  0  0  0  0  0  0  0  0  0
    2.6204    0.8904   -0.2325 H   0  0  0  0  0  0  0  0  0  0  0  0
    5.2051    3.2085    0.8174 H   0  0  0  0  0  0  0  0  0  0  0  0
    4.8329    2.1061    2.1952 H   0  0  0  0  0  0  0  0  0  0  0  0
    6.0211    2.5375   -1.0955 H   0  0  0  0  0  0  0  0  0  0  0  0
    5.1240    1.1006   -1.8018 H   0  0  0  0  0  0  0  0  0  0  0  0
    6.9666   -0.3082   -1.4548 H   0  0  0  0  0  0  0  0  0  0  0  0
    7.7820    1.2574   -1.8613 H   0  0  0  0  0  0  0  0  0  0  0  0
    7.0207    3.4570    2.1244 H   0  0  0  0  0  0  0  0  0  0  0  0
    7.1313    1.7742    2.6810 H   0  0  0  0  0  0  0  0  0  0  0  0
    8.9191    2.2760    1.2145 H   0  0  0  0  0  0  0  0  0  0  0  0
    7.8716    2.8910   -0.0894 H   0  0  0  0  0  0  0  0  0  0  0  0
    8.8840    0.3772    0.0041 H   0  0  0  0  0  0  0  0  0  0  0  0
    7.3112    0.1293    0.9383 H   0  0  0  0  0  0  0  0  0  0  0  0
  1  2  1  0
  2  3  2  0
  4  5  2  0
  1  5  1  0
  1  6  1  0
  2  7  1  0
  5  8  1  0
  4  9  1  0
 10 26  1  0
  7 11  2  0
  7 12  1  0
  6 13  1  0
 14 16  1  0
  3 15  1  0
  8 16  2  0
 17 19  1  0
 18 24  2  0
 12 19  2  0
 11 20  1  0
 13 21  2  0
 13 22  1  0
 22 23  2  0
 21 24  1  0
 18 25  1  0
 26 29  1  0
 14 27  1  0
 17 28  1  0
 25 29  1  0
 10 30  1  0
 10 31  1  0
 31 32  1  0
 30 33  1  0
 33 34  1  0
 32 35  1  0
  3  4  1  0
 17 20  2  0
 18 23  1  0
  9 14  2  0
 34 35  1  0
  6 36  1  0
  6 37  1  0
  8 38  1  0
  9 39  1  0
 11 40  1  0
 12 41  1  0
 15 42  1  0
 15 43  1  0
 15 44  1  0
 16 45  1  0
 19 46  1  0
 20 47  1  0
 21 48  1  0
 22 49  1  0
 23 50  1  0
 24 51  1  0
 26 52  1  0
 26 53  1  0
 27 54  1  0
 28 55  1  0
 29 56  1  0
 29 57  1  0
 30 58  1  0
 30 59  1  0
 31 60  1  0
 31 61  1  0
 32 62  1  0
 32 63  1  0
 33 64  1  0
 33 65  1  0
 34 66  1  0
 34 67  1  0
 35 68  1  0
 35 69  1  0
M  END

