310265116
     RDKit          3D

 59 64  0  0  1  0  0  0  0  0999 V2000
   -5.1015   -0.0117    2.4988 C   0  0  0  0  0  0  0  0  0  0  0  0
   -0.3557   -1.2157    0.9509 C   0  0  0  0  0  0  0  0  0  0  0  0
   -3.8637   -1.4162   -1.9549 C   0  0  0  0  0  0  0  0  0  0  0  0
   -3.0896   -1.2963   -2.9948 C   0  0  0  0  0  0  0  0  0  0  0  0
    0.7773   -0.7014    0.3405 C   0  0  0  0  0  0  0  0  0  0  0  0
   -3.3403    1.8434   -0.1894 C   0  0  0  0  0  0  0  0  0  0  0  0
   -3.6707    1.3909    1.2114 C   0  0  0  0  0  0  0  0  0  0  0  0
    5.6105    1.1796    1.4794 C   0  0  0  0  0  0  0  0  0  0  0  0
    5.3511   -0.6313   -0.0366 C   0  0  0  0  0  0  0  0  0  0  0  0
    3.6195    1.0275    0.2017 C   0  0  0  0  0  0  0  0  0  0  0  0
    5.8594    0.0001    2.3932 C   0  0  0  0  0  0  0  0  0  0  0  0
    6.7522   -0.8895    0.4768 C   0  0  0  0  0  0  0  0  0  0  0  0
    3.0642    0.5898   -1.1153 C   0  0  0  0  0  0  0  0  0  0  0  0
   -2.8697   -1.3215    1.1200 C   0  0  0  0  0  0  0  0  0  0  0  0
   -1.6266   -0.8063    0.5497 C   0  0  0  0  0  0  0  0  0  0  0  0
   -3.9968   -0.3709   -0.9555 C   0  0  1  0  0  0  0  0  0  0  0  0
   -4.1132   -0.8350    0.4712 C   0  0  2  0  0  0  0  0  0  0  0  0
   -2.2832   -0.1189   -3.2675 C   0  0  1  0  0  0  0  0  0  0  0  0
    0.6480    0.2232   -0.6724 C   0  0  0  0  0  0  0  0  0  0  0  0
   -1.6727    0.1041   -0.4494 C   0  0  0  0  0  0  0  0  0  0  0  0
   -0.6082    0.6564   -1.1013 C   0  0  0  0  0  0  0  0  0  0  0  0
   -2.4677    1.0618   -2.3876 C   0  0  1  0  0  0  0  0  0  0  0  0
   -2.9165    0.6661   -0.9956 C   0  0  2  0  0  0  0  0  0  0  0  0
   -4.6686    0.3366    1.1840 N   0  0  0  0  0  0  0  0  0  0  0  0
    5.0511    0.7632    0.2122 N   0  0  0  0  0  0  0  0  0  0  0  0
   -0.9376   -0.5435   -3.3143 O   0  0  0  0  0  0  0  0  0  0  0  0
    6.7859   -0.8805    1.8587 O   0  0  0  0  0  0  0  0  0  0  0  0
    1.7234    0.7608   -1.3015 O   0  0  0  0  0  0  0  0  0  0  0  0
   -1.1285    1.5285   -2.0485 O   0  0  0  0  0  0  0  0  0  0  0  0
   -5.2936   -1.1221    2.5067 H   0  0  0  0  0  0  0  0  0  0  0  0
   -4.3505    0.2155    3.2712 H   0  0  0  0  0  0  0  0  0  0  0  0
   -6.0828    0.4608    2.7151 H   0  0  0  0  0  0  0  0  0  0  0  0
   -0.2565   -1.9370    1.7413 H   0  0  0  0  0  0  0  0  0  0  0  0
   -4.4422   -2.3396   -1.8197 H   0  0  0  0  0  0  0  0  0  0  0  0
   -3.0426   -2.1199   -3.6983 H   0  0  0  0  0  0  0  0  0  0  0  0
    1.7108   -1.0865    0.7037 H   0  0  0  0  0  0  0  0  0  0  0  0
   -4.2120    2.3306   -0.6745 H   0  0  0  0  0  0  0  0  0  0  0  0
   -2.5215    2.6028   -0.0976 H   0  0  0  0  0  0  0  0  0  0  0  0
   -4.1059    2.2111    1.8222 H   0  0  0  0  0  0  0  0  0  0  0  0
   -2.7673    1.0401    1.7150 H   0  0  0  0  0  0  0  0  0  0  0  0
    6.5634    1.6861    1.2949 H   0  0  0  0  0  0  0  0  0  0  0  0
    4.9071    1.8575    1.9932 H   0  0  0  0  0  0  0  0  0  0  0  0
    4.6144   -1.2654    0.4690 H   0  0  0  0  0  0  0  0  0  0  0  0
    5.3660   -0.8368   -1.1369 H   0  0  0  0  0  0  0  0  0  0  0  0
    3.1946    0.5925    1.0913 H   0  0  0  0  0  0  0  0  0  0  0  0
    3.5242    2.1447    0.2443 H   0  0  0  0  0  0  0  0  0  0  0  0
    6.2636    0.3944    3.3423 H   0  0  0  0  0  0  0  0  0  0  0  0
    4.9001   -0.5240    2.5977 H   0  0  0  0  0  0  0  0  0  0  0  0
    7.0433   -1.8987    0.0907 H   0  0  0  0  0  0  0  0  0  0  0  0
    7.4211   -0.1172    0.0546 H   0  0  0  0  0  0  0  0  0  0  0  0
    3.3700   -0.4688   -1.3423 H   0  0  0  0  0  0  0  0  0  0  0  0
    3.6189    1.1850   -1.9051 H   0  0  0  0  0  0  0  0  0  0  0  0
   -2.9032   -1.0184    2.1999 H   0  0  0  0  0  0  0  0  0  0  0  0
   -2.8214   -2.4295    1.1165 H   0  0  0  0  0  0  0  0  0  0  0  0
   -4.9613    0.1755   -1.1761 H   0  0  0  0  0  0  0  0  0  0  0  0
   -4.8819   -1.6289    0.5248 H   0  0  0  0  0  0  0  0  0  0  0  0
   -2.5022    0.2044   -4.3288 H   0  0  0  0  0  0  0  0  0  0  0  0
   -3.0439    1.8835   -2.8222 H   0  0  0  0  0  0  0  0  0  0  0  0
   -0.8402   -1.2853   -2.6565 H   0  0  0  0  0  0  0  0  0  0  0  0
  3  4  2  0
  2  5  2  0
  6  7  1  0
  8 11  1  0
  9 12  1  0
 10 13  1  0
  2 15  1  0
 14 15  1  0
  3 16  1  0
 14 17  1  0
 16 17  1  0
  4 18  1  0
  5 19  1  0
 15 20  2  0
 19 21  2  0
 20 21  1  0
 18 22  1  0
 23  6  1  1
 16 23  1  0
 23 20  1  0
 22 23  1  0
  1 24  1  0
  7 24  1  0
 17 24  1  0
  8 25  1  0
  9 25  1  0
 10 25  1  0
 18 26  1  0
 11 27  1  0
 12 27  1  0
 13 28  1  0
 19 28  1  0
 21 29  1  0
 22 29  1  0
  1 30  1  0
  1 31  1  0
  1 32  1  0
  2 33  1  0
  3 34  1  0
  4 35  1  0
  5 36  1  0
  6 37  1  0
  6 38  1  0
  7 39  1  0
  7 40  1  0
  8 41  1  0
  8 42  1  0
  9 43  1  0
  9 44  1  0
 10 45  1  0
 10 46  1  0
 11 47  1  0
 11 48  1  0
 12 49  1  0
 12 50  1  0
 13 51  1  0
 13 52  1  0
 14 53  1  0
 14 54  1  0
 16 55  1  6
 17 56  1  6
 18 57  1  6
 22 58  1  6
 26 59  1  0
M  END

