347827778
     RDKit          3D

 73 81  0  0  1  0  0  0  0  0999 V2000
   -3.2037   -0.0628    1.6528 C   0  0  0  0  0  0  0  0  0  0  0  0
   -3.4515    1.2100    1.1831 C   0  0  0  0  0  0  0  0  0  0  0  0
   -1.9865    0.6831   -0.6219 C   0  0  0  0  0  0  0  0  0  0  0  0
   -2.8226    1.5877    0.0134 C   0  0  0  0  0  0  0  0  0  0  0  0
   -1.7530   -0.5915   -0.1344 C   0  0  0  0  0  0  0  0  0  0  0  0
   -2.3609   -0.9643    1.0044 C   0  0  0  0  0  0  0  0  0  0  0  0
   -1.9611    2.4894   -1.7855 C   0  0  0  0  0  0  0  0  0  0  0  0
   -2.8073    2.7360   -0.7292 C   0  0  0  0  0  0  0  0  0  0  0  0
   -3.1538    4.9200   -1.6034 C   0  0  0  0  0  0  0  0  0  0  0  0
   -3.4215    3.9615   -0.6190 C   0  0  0  0  0  0  0  0  0  0  0  0
   -1.6969    3.4330   -2.7554 C   0  0  0  0  0  0  0  0  0  0  0  0
   -2.3070    4.6654   -2.6554 C   0  0  0  0  0  0  0  0  0  0  0  0
   -1.1125   -2.5952    0.2163 C   0  0  0  0  0  0  0  0  0  0  0  0
   -1.9636   -2.2533    1.2555 C   0  0  0  0  0  0  0  0  0  0  0  0
   -2.2849   -3.0987    2.2892 C   0  0  0  0  0  0  0  0  0  0  0  0
   -1.7312   -4.3748    2.3069 C   0  0  0  0  0  0  0  0  0  0  0  0
   -0.8718   -4.7347    1.2676 C   0  0  0  0  0  0  0  0  0  0  0  0
   -0.5788   -3.8509    0.2508 C   0  0  0  0  0  0  0  0  0  0  0  0
   -0.9793   -1.5877   -0.6391 N   0  0  0  0  0  0  0  0  0  0  0  0
   -1.4651    1.2420   -1.7133 N   0  0  0  0  0  0  0  0  0  0  0  0
   -0.7331   -0.6319   -2.7515 O   0  0  0  0  0  0  0  0  0  0  0  0
    1.8180   -0.0430   -2.0026 C   0  0  1  0  0  0  0  0  0  0  0  0
    0.8459    1.0682   -2.0959 C   0  0  0  0  0  0  0  0  0  0  0  0
   -0.5051    0.6632   -2.6393 C   0  0  2  0  0  0  0  0  0  0  0  0
    2.8326    0.3553   -0.9941 N   0  0  0  0  0  0  0  0  0  0  0  0
    4.1323    0.6147   -1.5633 C   0  0  0  0  0  0  0  0  0  0  0  0
   -4.6509    0.9417    3.1317 N   0  0  0  0  0  0  0  0  0  0  0  0
   -3.9756   -0.2823    2.9214 C   0  0  0  0  0  0  0  0  0  0  0  0
   -4.3549    1.8861    2.0737 C   0  0  0  0  0  0  0  0  0  0  0  0
   -4.8359    3.0429    2.0239 O   0  0  0  0  0  0  0  0  0  0  0  0
   -0.2140   -1.5684   -1.8967 C   0  0  2  0  0  0  0  0  0  0  0  0
   -0.4895   -2.8926   -2.6540 C   0  0  0  0  0  0  0  0  0  0  0  0
    1.2375   -1.3934   -1.7585 C   0  0  2  0  0  0  0  0  0  0  0  0
    1.8178   -1.9140   -0.6130 O   0  0  0  0  0  0  0  0  0  0  0  0
    2.7007   -2.9434   -0.8157 C   0  0  0  0  0  0  0  0  0  0  0  0
    2.5192    0.4763    0.3342 C   0  0  0  0  0  0  0  0  0  0  0  0
    1.2552    0.2398    0.6209 O   0  0  0  0  0  0  0  0  0  0  0  0
    3.3325    0.8172    1.4611 C   0  0  0  0  0  0  0  0  0  0  0  0
    4.7232    1.5351    3.8034 C   0  0  0  0  0  0  0  0  0  0  0  0
    5.4065    1.3809    2.6309 C   0  0  0  0  0  0  0  0  0  0  0  0
    3.3675    1.3463    3.8639 C   0  0  0  0  0  0  0  0  0  0  0  0
    4.6832    1.0220    1.4808 C   0  0  0  0  0  0  0  0  0  0  0  0
    2.7115    1.0005    2.7262 C   0  0  0  0  0  0  0  0  0  0  0  0
   -3.6107    5.9043   -1.5671 H   0  0  0  0  0  0  0  0  0  0  0  0
   -4.0909    4.2212    0.1747 H   0  0  0  0  0  0  0  0  0  0  0  0
   -1.0180    3.2127   -3.5888 H   0  0  0  0  0  0  0  0  0  0  0  0
   -2.0997    5.4139   -3.4216 H   0  0  0  0  0  0  0  0  0  0  0  0
   -2.9621   -2.7990    3.0989 H   0  0  0  0  0  0  0  0  0  0  0  0
   -1.9817   -5.0361    3.1139 H   0  0  0  0  0  0  0  0  0  0  0  0
   -0.4609   -5.7285    1.3118 H   0  0  0  0  0  0  0  0  0  0  0  0
    0.0805   -4.1478   -0.5241 H   0  0  0  0  0  0  0  0  0  0  0  0
    2.3896   -0.0308   -2.9799 H   0  0  0  0  0  0  0  0  0  0  0  0
    0.7835    1.6143   -1.1258 H   0  0  0  0  0  0  0  0  0  0  0  0
    1.2443    1.8571   -2.8100 H   0  0  0  0  0  0  0  0  0  0  0  0
   -0.6460    1.1503   -3.6618 H   0  0  0  0  0  0  0  0  0  0  0  0
    4.9000   -0.1353   -1.3428 H   0  0  0  0  0  0  0  0  0  0  0  0
    4.0514    0.6398   -2.7075 H   0  0  0  0  0  0  0  0  0  0  0  0
    4.4877    1.6372   -1.3462 H   0  0  0  0  0  0  0  0  0  0  0  0
   -5.2882    1.1579    3.9424 H   0  0  0  0  0  0  0  0  0  0  0  0
   -4.6443   -1.1445    2.7129 H   0  0  0  0  0  0  0  0  0  0  0  0
   -3.2892   -0.4812    3.7569 H   0  0  0  0  0  0  0  0  0  0  0  0
   -0.7648   -2.6912   -3.7343 H   0  0  0  0  0  0  0  0  0  0  0  0
    0.4387   -3.4877   -2.7696 H   0  0  0  0  0  0  0  0  0  0  0  0
   -1.3586   -3.4167   -2.2632 H   0  0  0  0  0  0  0  0  0  0  0  0
    1.7008   -2.0523   -2.5784 H   0  0  0  0  0  0  0  0  0  0  0  0
    3.1286   -3.3129    0.1474 H   0  0  0  0  0  0  0  0  0  0  0  0
    3.6096   -2.5900   -1.3881 H   0  0  0  0  0  0  0  0  0  0  0  0
    2.3083   -3.8288   -1.3288 H   0  0  0  0  0  0  0  0  0  0  0  0
    5.2095    1.8120    4.7386 H   0  0  0  0  0  0  0  0  0  0  0  0
    6.4698    1.5202    2.5433 H   0  0  0  0  0  0  0  0  0  0  0  0
    2.8151    1.4650    4.7859 H   0  0  0  0  0  0  0  0  0  0  0  0
    5.2427    0.8892    0.5710 H   0  0  0  0  0  0  0  0  0  0  0  0
    1.6436    0.8518    2.7696 H   0  0  0  0  0  0  0  0  0  0  0  0
  2  4  2  0
  1  6  2  0
  3  5  2  0
  1 28  1  0
  1  2  1  0
  2 29  1  0
 27 28  1  0
 27 29  1  0
  3 20  1  0
  3  4  1  0
  4  8  1  0
  7 20  1  0
  5 19  1  0
  5  6  1  0
  6 14  1  0
 13 19  1  0
  7 11  1  0
  7  8  2  0
  8 10  1  0
  9 10  2  0
  9 12  1  0
 11 12  2  0
 13 18  1  0
 13 14  2  0
 14 15  1  0
 15 16  2  0
 16 17  1  0
 17 18  2  0
 21 31  1  0
 21 24  1  0
 31 33  1  0
 22 33  1  0
 22 23  1  0
 23 24  1  0
 31 19  1  0
 24 20  1  0
 22 25  1  0
 25 26  1  0
 29 30  2  0
 31 32  1  6
 33 34  1  0
 34 35  1  0
 25 36  1  0
 36 37  2  0
 36 38  1  0
 39 40  2  0
 39 41  1  0
 40 42  1  0
 41 43  2  0
 38 42  2  0
 38 43  1  0
  9 44  1  0
 10 45  1  0
 11 46  1  0
 12 47  1  0
 15 48  1  0
 16 49  1  0
 17 50  1  0
 18 51  1  0
 22 52  1  6
 23 53  1  0
 23 54  1  0
 24 55  1  6
 26 56  1  0
 26 57  1  0
 26 58  1  0
 27 59  1  0
 28 60  1  0
 28 61  1  0
 32 62  1  0
 32 63  1  0
 32 64  1  0
 33 65  1  6
 35 66  1  0
 35 67  1  0
 35 68  1  0
 39 69  1  0
 40 70  1  0
 41 71  1  0
 42 72  1  0
 43 73  1  0
M  END

