347828011
     RDKit          3D

 82 87  0  0  1  0  0  0  0  0999 V2000
   -2.2418   -2.7333   -0.0680 C   0  0  0  0  0  0  0  0  0  0  0  0
   -3.0029   -1.5893   -0.1192 C   0  0  0  0  0  0  0  0  0  0  0  0
   -4.4341   -1.6997    0.1295 C   0  0  0  0  0  0  0  0  0  0  0  0
   -2.8263   -4.0590    0.2288 C   0  0  0  0  0  0  0  0  0  0  0  0
   -1.0111   -0.3400   -0.6311 C   0  0  0  0  0  0  0  0  0  0  0  0
   -0.2658   -1.4920   -0.5752 C   0  0  0  0  0  0  0  0  0  0  0  0
   -4.9923   -3.0260    0.4222 C   0  0  0  0  0  0  0  0  0  0  0  0
   -0.8667   -2.7188   -0.2921 C   0  0  0  0  0  0  0  0  0  0  0  0
   -2.3989   -0.3777   -0.4015 C   0  0  0  0  0  0  0  0  0  0  0  0
   -4.2443   -4.1680    0.4751 C   0  0  0  0  0  0  0  0  0  0  0  0
    1.7092   -0.0944   -0.7126 C   0  0  2  0  0  0  0  0  0  0  0  0
   -0.4243    1.0119   -0.9473 C   0  0  2  0  0  0  0  0  0  0  0  0
    1.2211   -1.5245   -0.7965 C   0  0  0  0  0  0  0  0  0  0  0  0
   -0.7794    2.9771    0.2268 C   0  0  2  0  0  0  0  0  0  0  0  0
    0.1660    3.9993    0.1978 O   0  0  0  0  0  0  0  0  0  0  0  0
    0.8757    0.7248   -1.6707 C   0  0  0  0  0  0  0  0  0  0  0  0
   -1.7179    3.0751    1.3912 C   0  0  0  0  0  0  0  0  0  0  0  0
    3.7535   -1.1437   -1.3524 N   0  0  0  0  0  0  0  0  0  0  0  0
    3.1417   -0.0699   -1.0527 C   0  0  0  0  0  0  0  0  0  0  0  0
   -1.0359    5.4699    1.6783 C   0  0  1  0  0  0  0  0  0  0  0  0
   -1.3292    4.1588    2.3730 C   0  0  1  0  0  0  0  0  0  0  0  0
   -0.3951    5.2462    0.3265 C   0  0  2  0  0  0  0  0  0  0  0  0
    6.1089   -1.6085   -0.7771 C   0  0  0  0  0  0  0  0  0  0  0  0
    5.1084   -1.1837   -1.6829 N   0  0  0  0  0  0  0  0  0  0  0  0
   -0.1442    1.7464    0.1755 O   0  0  0  0  0  0  0  0  0  0  0  0
   -2.0966   -5.0706    0.2647 O   0  0  0  0  0  0  0  0  0  0  0  0
   -5.1767   -0.7008    0.0975 O   0  0  0  0  0  0  0  0  0  0  0  0
   -6.3654   -3.1310    0.6610 C   0  0  0  0  0  0  0  0  0  0  0  0
    5.7253   -1.9634    0.3835 O   0  0  0  0  0  0  0  0  0  0  0  0
    7.5221   -1.6694   -1.0679 C   0  0  0  0  0  0  0  0  0  0  0  0
   -0.1253   -3.8860   -0.2360 O   0  0  0  0  0  0  0  0  0  0  0  0
   -3.0938    0.7984   -0.4690 O   0  0  0  0  0  0  0  0  0  0  0  0
    1.4862    0.4000    0.5864 O   0  0  0  0  0  0  0  0  0  0  0  0
   -2.4206    4.3638    3.3038 N   0  0  0  0  0  0  0  0  0  0  0  0
   -2.2086    6.2073    1.4893 O   0  0  0  0  0  0  0  0  0  0  0  0
   -4.8075   -5.3880    0.7527 C   0  0  0  0  0  0  0  0  0  0  0  0
   -7.1242   -1.9702    0.6071 O   0  0  0  0  0  0  0  0  0  0  0  0
    3.8618    1.2140   -1.0428 C   0  0  0  0  0  0  0  0  0  0  0  0
   -1.3426    5.5954   -0.7860 C   0  0  0  0  0  0  0  0  0  0  0  0
   -6.1768   -5.5053    0.9927 C   0  0  0  0  0  0  0  0  0  0  0  0
   -6.9325   -4.3638    0.9411 C   0  0  0  0  0  0  0  0  0  0  0  0
    8.0334   -1.2957   -2.2863 C   0  0  0  0  0  0  0  0  0  0  0  0
    8.4092   -2.1129   -0.1122 C   0  0  0  0  0  0  0  0  0  0  0  0
   -8.5165   -2.0751    0.8493 C   0  0  0  0  0  0  0  0  0  0  0  0
    9.7483   -2.1799   -0.3633 C   0  0  0  0  0  0  0  0  0  0  0  0
    9.3916   -1.3531   -2.5701 C   0  0  0  0  0  0  0  0  0  0  0  0
   10.2343   -1.8023   -1.5839 C   0  0  0  0  0  0  0  0  0  0  0  0
   -1.1270    1.5168   -1.6442 H   0  0  0  0  0  0  0  0  0  0  0  0
    1.7229   -2.1456    0.0065 H   0  0  0  0  0  0  0  0  0  0  0  0
    1.3944   -1.9135   -1.8050 H   0  0  0  0  0  0  0  0  0  0  0  0
   -1.3890    3.0595   -0.7092 H   0  0  0  0  0  0  0  0  0  0  0  0
    0.6349    0.1127   -2.5789 H   0  0  0  0  0  0  0  0  0  0  0  0
    1.3731    1.6297   -2.0319 H   0  0  0  0  0  0  0  0  0  0  0  0
   -2.7574    3.2999    1.0698 H   0  0  0  0  0  0  0  0  0  0  0  0
   -1.7561    2.1183    1.9299 H   0  0  0  0  0  0  0  0  0  0  0  0
   -0.3952    6.0662    2.3639 H   0  0  0  0  0  0  0  0  0  0  0  0
   -0.4458    3.8388    2.9883 H   0  0  0  0  0  0  0  0  0  0  0  0
    0.4614    5.9805    0.2622 H   0  0  0  0  0  0  0  0  0  0  0  0
    5.3940   -0.8885   -2.6360 H   0  0  0  0  0  0  0  0  0  0  0  0
    0.8580   -3.8541   -0.4125 H   0  0  0  0  0  0  0  0  0  0  0  0
   -4.0048    1.0757   -0.3646 H   0  0  0  0  0  0  0  0  0  0  0  0
    1.2483   -0.3365    1.2032 H   0  0  0  0  0  0  0  0  0  0  0  0
   -2.3394    5.2337    3.8557 H   0  0  0  0  0  0  0  0  0  0  0  0
   -3.3546    4.2064    2.8933 H   0  0  0  0  0  0  0  0  0  0  0  0
   -2.3937    6.8237    2.2402 H   0  0  0  0  0  0  0  0  0  0  0  0
   -4.1751   -6.2636    0.7841 H   0  0  0  0  0  0  0  0  0  0  0  0
    4.2751    1.3325    0.0021 H   0  0  0  0  0  0  0  0  0  0  0  0
    3.1624    2.0708   -1.1594 H   0  0  0  0  0  0  0  0  0  0  0  0
    4.6887    1.2500   -1.7824 H   0  0  0  0  0  0  0  0  0  0  0  0
   -0.9523    5.1313   -1.7242 H   0  0  0  0  0  0  0  0  0  0  0  0
   -2.3881    5.2995   -0.5706 H   0  0  0  0  0  0  0  0  0  0  0  0
   -1.3112    6.6896   -0.9306 H   0  0  0  0  0  0  0  0  0  0  0  0
   -6.5906   -6.4698    1.2069 H   0  0  0  0  0  0  0  0  0  0  0  0
   -7.9974   -4.4171    1.1222 H   0  0  0  0  0  0  0  0  0  0  0  0
    7.3536   -0.9399   -3.0631 H   0  0  0  0  0  0  0  0  0  0  0  0
    8.0256   -2.4118    0.8534 H   0  0  0  0  0  0  0  0  0  0  0  0
   -8.9968   -1.0844    0.9491 H   0  0  0  0  0  0  0  0  0  0  0  0
   -8.7194   -2.6045    1.8201 H   0  0  0  0  0  0  0  0  0  0  0  0
   -8.9462   -2.6847    0.0377 H   0  0  0  0  0  0  0  0  0  0  0  0
   10.4290   -2.5291    0.3935 H   0  0  0  0  0  0  0  0  0  0  0  0
    9.7254   -1.0406   -3.5589 H   0  0  0  0  0  0  0  0  0  0  0  0
   11.2939   -1.8440   -1.8139 H   0  0  0  0  0  0  0  0  0  0  0  0
  1  2  2  0
  2  3  1  0
  1  4  1  0
  5  9  2  0
  6  8  2  0
  3  7  1  0
  1  8  1  0
  2  9  1  0
  4 10  1  0
 11 13  1  0
  5 12  1  0
  6 13  1  0
 14 25  1  0
 14 15  1  0
 12 16  1  0
 14 17  1  0
 18 19  2  3
 11 19  1  0
 20 21  1  0
 17 21  1  0
 15 22  1  0
 23 24  1  0
 18 24  1  0
 12 25  1  0
  4 26  2  0
  3 27  2  0
  7 28  2  0
 23 29  2  0
 23 30  1  0
  8 31  1  0
  9 32  1  0
 11 33  1  1
 21 34  1  0
 20 35  1  0
 10 36  2  0
 28 37  1  0
 19 38  1  0
 22 39  1  0
 36 40  1  0
 28 41  1  0
 30 42  2  0
 30 43  1  0
 37 44  1  0
 43 45  2  0
 42 46  1  0
 45 47  1  0
  5  6  1  0
  7 10  1  0
 11 16  1  0
 40 41  2  0
 20 22  1  0
 46 47  2  0
 12 48  1  6
 13 49  1  0
 13 50  1  0
 14 51  1  6
 16 52  1  0
 16 53  1  0
 17 54  1  0
 17 55  1  0
 20 56  1  1
 21 57  1  1
 22 58  1  1
 24 59  1  0
 31 60  1  0
 32 61  1  0
 33 62  1  0
 34 63  1  0
 34 64  1  0
 35 65  1  0
 36 66  1  0
 38 67  1  0
 38 68  1  0
 38 69  1  0
 39 70  1  0
 39 71  1  0
 39 72  1  0
 40 73  1  0
 41 74  1  0
 42 75  1  0
 43 76  1  0
 44 77  1  0
 44 78  1  0
 44 79  1  0
 45 80  1  0
 46 81  1  0
 47 82  1  0
M  END

