347827878
     RDKit          3D

 92 93  0  0  1  0  0  0  0  0999 V2000
   -5.7784    1.0782    2.4332 C   0  0  0  0  0  0  0  0  0  0  0  0
   -4.9681   -0.0596    1.9724 N   0  0  0  0  0  0  0  0  0  0  0  0
   -7.1032    0.9648    2.5983 N   0  0  0  0  0  0  0  0  0  0  0  0
   -5.2417    2.2655    2.7116 N   0  0  0  0  0  0  0  0  0  0  0  0
   -2.5990   -0.8470   -0.1774 N   0  0  0  0  0  4  0  0  0  0  0  0
   -5.7265   -1.2387    1.7037 C   0  0  0  0  0  0  0  0  0  0  0  0
   -3.5853    0.1974    1.9070 C   0  0  0  0  0  0  0  0  0  0  0  0
   -2.8175    0.2546    0.6710 C   0  0  0  0  0  0  0  0  0  0  0  0
   -6.7462   -1.0177    0.6687 C   0  0  0  0  0  0  0  0  0  0  0  0
   -8.7408   -0.6648   -1.2840 C   0  0  0  0  0  0  0  0  0  0  0  0
   -7.7243   -1.9803    0.4199 C   0  0  0  0  0  0  0  0  0  0  0  0
   -6.8250    0.1102   -0.1044 C   0  0  0  0  0  0  0  0  0  0  0  0
   -7.7962    0.3124   -1.0736 C   0  0  0  0  0  0  0  0  0  0  0  0
   -8.6943   -1.8186   -0.5241 C   0  0  0  0  0  0  0  0  0  0  0  0
   -7.3062    3.1811    3.3006 C   0  0  0  0  0  0  0  0  0  0  0  0
   -9.7130   -0.4693   -2.2495 O   0  0  0  0  0  0  0  0  0  0  0  0
   -5.9563    3.3203    3.1390 C   0  0  0  0  0  0  0  0  0  0  0  0
   -7.8820    1.9563    3.0161 C   0  0  0  0  0  0  0  0  0  0  0  0
   -1.5438   -0.4193   -1.1305 C   0  0  0  0  0  0  0  0  0  0  0  0
   -2.1566   -2.0454    0.5034 C   0  0  0  0  0  0  0  0  0  0  0  0
   -3.7133   -1.1758   -1.0280 C   0  0  0  0  0  0  0  0  0  0  0  0
  -10.6948   -1.4284   -2.5030 C   0  0  0  0  0  0  0  0  0  0  0  0
   -0.6734   -1.5502   -1.5758 C   0  0  0  0  0  0  0  0  0  0  0  0
   10.0513   -0.0338   -0.7251 C   0  0  0  0  0  0  0  0  0  0  0  0
   10.4105    1.3427   -0.3300 C   0  0  0  0  0  0  0  0  0  0  0  0
    6.6645    0.6970   -0.3217 C   0  0  0  0  0  0  0  0  0  0  0  0
    7.4742    0.9008    0.9033 C   0  0  0  0  0  0  0  0  0  0  0  0
    8.3291    2.1209    0.8602 C   0  0  0  0  0  0  0  0  0  0  0  0
    9.3153    2.3207   -0.1967 C   0  0  0  0  0  0  0  0  0  0  0  0
    0.3860   -1.1219   -2.5591 C   0  0  0  0  0  0  0  0  0  0  0  0
    1.3038   -0.0768   -2.0537 C   0  0  0  0  0  0  0  0  0  0  0  0
    2.0910   -0.4620   -0.8109 C   0  0  0  0  0  0  0  0  0  0  0  0
    2.9614    0.7384   -0.4392 C   0  0  0  0  0  0  0  0  0  0  0  0
    3.7927    0.5227    0.7747 C   0  0  0  0  0  0  0  0  0  0  0  0
    4.7709   -0.5937    0.7217 C   0  0  0  0  0  0  0  0  0  0  0  0
    5.7977   -0.5029   -0.3509 C   0  0  0  0  0  0  0  0  0  0  0  0
   11.3450   -0.8855   -0.8180 C   0  0  0  0  0  0  0  0  0  0  0  0
   -5.1816   -2.1490    1.4671 H   0  0  0  0  0  0  0  0  0  0  0  0
   -6.3258   -1.4072    2.6806 H   0  0  0  0  0  0  0  0  0  0  0  0
   -3.3917    1.1574    2.5094 H   0  0  0  0  0  0  0  0  0  0  0  0
   -3.1205   -0.5548    2.6539 H   0  0  0  0  0  0  0  0  0  0  0  0
   -3.2215    1.1185    0.0219 H   0  0  0  0  0  0  0  0  0  0  0  0
   -1.8013    0.7220    0.9563 H   0  0  0  0  0  0  0  0  0  0  0  0
   -7.6644   -2.8777    1.0337 H   0  0  0  0  0  0  0  0  0  0  0  0
   -6.0855    0.8953    0.0316 H   0  0  0  0  0  0  0  0  0  0  0  0
   -7.8075    1.2441   -1.6644 H   0  0  0  0  0  0  0  0  0  0  0  0
   -9.4334   -2.6240   -0.6638 H   0  0  0  0  0  0  0  0  0  0  0  0
   -7.9479    4.0006    3.6454 H   0  0  0  0  0  0  0  0  0  0  0  0
   -5.4995    4.2724    3.3587 H   0  0  0  0  0  0  0  0  0  0  0  0
   -8.9491    1.7838    3.1254 H   0  0  0  0  0  0  0  0  0  0  0  0
   -0.9467    0.3450   -0.5918 H   0  0  0  0  0  0  0  0  0  0  0  0
   -2.0735    0.1170   -1.9344 H   0  0  0  0  0  0  0  0  0  0  0  0
   -2.9383   -2.3685    1.1943 H   0  0  0  0  0  0  0  0  0  0  0  0
   -1.1749   -1.8939    1.0106 H   0  0  0  0  0  0  0  0  0  0  0  0
   -2.0159   -2.8446   -0.2318 H   0  0  0  0  0  0  0  0  0  0  0  0
   -4.3417   -2.0084   -0.6885 H   0  0  0  0  0  0  0  0  0  0  0  0
   -3.3567   -1.5070   -2.0497 H   0  0  0  0  0  0  0  0  0  0  0  0
   -4.2868   -0.2397   -1.2722 H   0  0  0  0  0  0  0  0  0  0  0  0
  -11.5137   -0.9145   -3.0727 H   0  0  0  0  0  0  0  0  0  0  0  0
  -11.1640   -1.8345   -1.5904 H   0  0  0  0  0  0  0  0  0  0  0  0
  -10.2733   -2.2863   -3.0900 H   0  0  0  0  0  0  0  0  0  0  0  0
   -0.1337   -1.9608   -0.7011 H   0  0  0  0  0  0  0  0  0  0  0  0
   -1.2215   -2.3788   -2.0453 H   0  0  0  0  0  0  0  0  0  0  0  0
    9.3351   -0.5761   -0.1380 H   0  0  0  0  0  0  0  0  0  0  0  0
    9.6376   -0.0141   -1.7750 H   0  0  0  0  0  0  0  0  0  0  0  0
   10.9767    1.2922    0.6623 H   0  0  0  0  0  0  0  0  0  0  0  0
   11.1675    1.7706   -1.0651 H   0  0  0  0  0  0  0  0  0  0  0  0
    6.0641    1.6478   -0.4642 H   0  0  0  0  0  0  0  0  0  0  0  0
    7.3271    0.6806   -1.2071 H   0  0  0  0  0  0  0  0  0  0  0  0
    7.9796    0.0732    1.3625 H   0  0  0  0  0  0  0  0  0  0  0  0
    6.6895    1.1987    1.7427 H   0  0  0  0  0  0  0  0  0  0  0  0
    8.8068    2.2185    1.9010 H   0  0  0  0  0  0  0  0  0  0  0  0
    7.6390    3.0493    0.8838 H   0  0  0  0  0  0  0  0  0  0  0  0
    8.7521    2.3662   -1.2033 H   0  0  0  0  0  0  0  0  0  0  0  0
    9.7728    3.3747   -0.0757 H   0  0  0  0  0  0  0  0  0  0  0  0
   -0.0066   -0.8253   -3.5316 H   0  0  0  0  0  0  0  0  0  0  0  0
    1.0132   -2.0408   -2.7513 H   0  0  0  0  0  0  0  0  0  0  0  0
    2.0721    0.1017   -2.8545 H   0  0  0  0  0  0  0  0  0  0  0  0
    0.8305    0.9133   -1.8983 H   0  0  0  0  0  0  0  0  0  0  0  0
    1.3398   -0.6134   -0.0090 H   0  0  0  0  0  0  0  0  0  0  0  0
    2.6804   -1.3662   -0.9513 H   0  0  0  0  0  0  0  0  0  0  0  0
    2.2893    1.6092   -0.2267 H   0  0  0  0  0  0  0  0  0  0  0  0
    3.5457    1.0217   -1.3382 H   0  0  0  0  0  0  0  0  0  0  0  0
    4.2371    1.4907    1.0927 H   0  0  0  0  0  0  0  0  0  0  0  0
    3.0727    0.2735    1.6124 H   0  0  0  0  0  0  0  0  0  0  0  0
    4.1762   -1.5343    0.5175 H   0  0  0  0  0  0  0  0  0  0  0  0
    5.1872   -0.7379    1.7344 H   0  0  0  0  0  0  0  0  0  0  0  0
    6.3967   -1.4371   -0.3253 H   0  0  0  0  0  0  0  0  0  0  0  0
    5.2697   -0.5244   -1.3346 H   0  0  0  0  0  0  0  0  0  0  0  0
   11.1238   -1.9133   -0.4356 H   0  0  0  0  0  0  0  0  0  0  0  0
   12.1003   -0.3843   -0.1983 H   0  0  0  0  0  0  0  0  0  0  0  0
   11.6870   -0.9138   -1.8679 H   0  0  0  0  0  0  0  0  0  0  0  0
  1  2  1  0
  1  3  2  0
  1  4  1  0
  5  8  1  0
  2  6  1  0
  2  7  1  0
  7  8  1  0
  6  9  1  0
 10 14  2  0
  9 11  2  0
  9 12  1  0
 12 13  2  0
 11 14  1  0
 15 17  1  0
 10 16  1  0
  4 17  2  0
  3 18  1  0
  5 19  1  0
  5 20  1  0
  5 21  1  0
 16 22  1  0
 19 23  1  0
 24 25  1  0
 25 29  1  0
 26 36  1  0
 26 27  1  0
 27 28  1  0
 28 29  1  0
 23 30  1  0
 30 31  1  0
 31 32  1  0
 32 33  1  0
 33 34  1  0
 34 35  1  0
 35 36  1  0
 24 37  1  0
 15 18  2  0
 10 13  1  0
  6 38  1  0
  6 39  1  0
  7 40  1  0
  7 41  1  0
  8 42  1  0
  8 43  1  0
 11 44  1  0
 12 45  1  0
 13 46  1  0
 14 47  1  0
 15 48  1  0
 17 49  1  0
 18 50  1  0
 19 51  1  0
 19 52  1  0
 20 53  1  0
 20 54  1  0
 20 55  1  0
 21 56  1  0
 21 57  1  0
 21 58  1  0
 22 59  1  0
 22 60  1  0
 22 61  1  0
 23 62  1  0
 23 63  1  0
 24 64  1  0
 24 65  1  0
 25 66  1  0
 25 67  1  0
 26 68  1  0
 26 69  1  0
 27 70  1  0
 27 71  1  0
 28 72  1  0
 28 73  1  0
 29 74  1  0
 29 75  1  0
 30 76  1  0
 30 77  1  0
 31 78  1  0
 31 79  1  0
 32 80  1  0
 32 81  1  0
 33 82  1  0
 33 83  1  0
 34 84  1  0
 34 85  1  0
 35 86  1  0
 35 87  1  0
 36 88  1  0
 36 89  1  0
 37 90  1  0
 37 91  1  0
 37 92  1  0
M  CHG  1   5   1
M  END

