347827960
     RDKit          3D

 55 54  0  0  1  0  0  0  0  0999 V2000
    4.6536    1.4566    2.4375 C   0  0  0  0  0  0  0  0  0  0  0  0
    3.8665    0.4143    2.6351 C   0  0  0  0  0  0  0  0  0  0  0  0
    3.3877   -0.4252    1.4517 C   0  0  0  0  0  0  0  0  0  0  0  0
    3.8799   -1.8107    1.6631 C   0  0  0  0  0  0  0  0  0  0  0  0
    3.4957   -2.7844    0.6319 C   0  0  0  0  0  0  0  0  0  0  0  0
    3.9892   -2.6763   -0.7292 C   0  0  0  0  0  0  0  0  0  0  0  0
    3.6542   -1.4956   -1.5344 C   0  0  0  0  0  0  0  0  0  0  0  0
    2.1440   -1.3162   -1.6581 C   0  0  0  0  0  0  0  0  0  0  0  0
    1.8300   -0.1130   -2.4798 C   0  0  0  0  0  0  0  0  0  0  0  0
    0.3630    0.0914   -2.6413 C   0  0  0  0  0  0  0  0  0  0  0  0
   -0.3169    0.3212   -1.3603 C   0  0  0  0  0  0  0  0  0  0  0  0
   -1.7072    0.4750   -1.3385 N   0  0  0  0  0  0  0  0  0  0  0  0
   -2.4781    0.7091   -0.0735 C   0  0  1  0  0  0  0  0  0  0  0  0
    0.3324    0.3795   -0.3010 O   0  0  0  0  0  0  0  0  0  0  0  0
   -2.9926    2.0765   -0.2333 C   0  0  0  0  0  0  0  0  0  0  0  0
   -3.4016   -0.4087   -0.0009 C   0  0  0  0  0  0  0  0  0  0  0  0
   -3.5087   -1.2079   -0.9630 O   0  0  0  0  0  0  0  0  0  0  0  0
   -4.1797   -0.6384    1.1064 O   0  0  0  0  0  0  0  0  0  0  0  0
   -5.0533   -1.7513    1.1065 C   0  0  0  0  0  0  0  0  0  0  0  0
   -3.8090    2.7528    0.7671 C   0  0  0  0  0  0  0  0  0  0  0  0
   -5.1402    2.1605    1.1239 C   0  0  0  0  0  0  0  0  0  0  0  0
   -3.0500    3.0917    2.0509 C   0  0  0  0  0  0  0  0  0  0  0  0
    4.9716    2.0253    3.2947 H   0  0  0  0  0  0  0  0  0  0  0  0
    4.9574    1.7084    1.4207 H   0  0  0  0  0  0  0  0  0  0  0  0
    3.5286    0.1066    3.5959 H   0  0  0  0  0  0  0  0  0  0  0  0
    2.2578   -0.4157    1.4593 H   0  0  0  0  0  0  0  0  0  0  0  0
    3.6898    0.0367    0.5374 H   0  0  0  0  0  0  0  0  0  0  0  0
    5.0137   -1.8296    1.7208 H   0  0  0  0  0  0  0  0  0  0  0  0
    3.4894   -2.1699    2.6732 H   0  0  0  0  0  0  0  0  0  0  0  0
    2.3298   -2.7935    0.6365 H   0  0  0  0  0  0  0  0  0  0  0  0
    3.6571   -3.8527    1.0517 H   0  0  0  0  0  0  0  0  0  0  0  0
    3.6561   -3.6412   -1.2810 H   0  0  0  0  0  0  0  0  0  0  0  0
    5.1346   -2.7701   -0.7776 H   0  0  0  0  0  0  0  0  0  0  0  0
    4.2009   -0.5678   -1.3914 H   0  0  0  0  0  0  0  0  0  0  0  0
    3.9563   -1.7361   -2.6607 H   0  0  0  0  0  0  0  0  0  0  0  0
    1.7070   -1.3736   -0.6702 H   0  0  0  0  0  0  0  0  0  0  0  0
    1.7317   -2.2072   -2.2264 H   0  0  0  0  0  0  0  0  0  0  0  0
    2.2451   -0.2809   -3.5173 H   0  0  0  0  0  0  0  0  0  0  0  0
    2.2664    0.8272   -2.0507 H   0  0  0  0  0  0  0  0  0  0  0  0
    0.1968    0.9852   -3.3182 H   0  0  0  0  0  0  0  0  0  0  0  0
   -0.1440   -0.8076   -3.0946 H   0  0  0  0  0  0  0  0  0  0  0  0
   -2.3082    0.4390   -2.1878 H   0  0  0  0  0  0  0  0  0  0  0  0
   -1.6788    0.6641    0.7240 H   0  0  0  0  0  0  0  0  0  0  0  0
   -3.5534    2.1367   -1.2268 H   0  0  0  0  0  0  0  0  0  0  0  0
   -2.0739    2.7170   -0.4670 H   0  0  0  0  0  0  0  0  0  0  0  0
   -5.5271   -1.9177    0.1231 H   0  0  0  0  0  0  0  0  0  0  0  0
   -4.4941   -2.6438    1.4381 H   0  0  0  0  0  0  0  0  0  0  0  0
   -5.8103   -1.5513    1.9031 H   0  0  0  0  0  0  0  0  0  0  0  0
   -4.0334    3.7920    0.3449 H   0  0  0  0  0  0  0  0  0  0  0  0
   -5.1100    1.6322    2.1032 H   0  0  0  0  0  0  0  0  0  0  0  0
   -5.8732    3.0336    1.2103 H   0  0  0  0  0  0  0  0  0  0  0  0
   -5.5852    1.5011    0.3845 H   0  0  0  0  0  0  0  0  0  0  0  0
   -2.7030    2.2111    2.5896 H   0  0  0  0  0  0  0  0  0  0  0  0
   -3.7898    3.6115    2.7045 H   0  0  0  0  0  0  0  0  0  0  0  0
   -2.2648    3.8299    1.8136 H   0  0  0  0  0  0  0  0  0  0  0  0
  1  2  2  3
  2  3  1  0
  3  4  1  0
  4  5  1  0
  5  6  1  0
  6  7  1  0
  7  8  1  0
  8  9  1  0
  9 10  1  0
 10 11  1  0
 11 12  1  0
 12 13  1  0
 11 14  2  0
 13 15  1  0
 13 16  1  0
 16 17  2  0
 16 18  1  0
 18 19  1  0
 15 20  1  0
 20 21  1  0
 20 22  1  0
  1 23  1  0
  1 24  1  0
  2 25  1  0
  3 26  1  0
  3 27  1  0
  4 28  1  0
  4 29  1  0
  5 30  1  0
  5 31  1  0
  6 32  1  0
  6 33  1  0
  7 34  1  0
  7 35  1  0
  8 36  1  0
  8 37  1  0
  9 38  1  0
  9 39  1  0
 10 40  1  0
 10 41  1  0
 12 42  1  0
 13 43  1  1
 15 44  1  0
 15 45  1  0
 19 46  1  0
 19 47  1  0
 19 48  1  0
 20 49  1  0
 21 50  1  0
 21 51  1  0
 21 52  1  0
 22 53  1  0
 22 54  1  0
 22 55  1  0
M  END

