347828045
     RDKit          3D

 74 73  0  0  0  0  0  0  0  0999 V2000
    7.7924    0.0984   -1.0169 C   0  0  0  0  0  0  0  0  0  0  0  0
   -9.1003   -3.9050    0.1941 C   0  0  0  0  0  0  0  0  0  0  0  0
    3.0124    7.8307   -0.8429 C   0  0  0  0  0  0  0  0  0  0  0  0
    6.4675   -0.6669   -0.8103 C   0  0  0  0  0  0  0  0  0  0  0  0
   -8.0979   -4.7949    0.8954 C   0  0  0  0  0  0  0  0  0  0  0  0
    3.4846    6.4165   -0.9387 C   0  0  0  0  0  0  0  0  0  0  0  0
    6.5482   -1.3379    0.5342 C   0  0  0  0  0  0  0  0  0  0  0  0
   -6.7608   -4.0807    0.9156 C   0  0  0  0  0  0  0  0  0  0  0  0
    2.4763    5.4186   -0.4155 C   0  0  0  0  0  0  0  0  0  0  0  0
    5.3004   -2.1188    0.7907 C   0  0  0  0  0  0  0  0  0  0  0  0
   -6.3550   -3.8338   -0.5023 C   0  0  0  0  0  0  0  0  0  0  0  0
    1.1986    5.5143   -1.1959 C   0  0  0  0  0  0  0  0  0  0  0  0
    4.1019   -1.2160    0.7937 C   0  0  0  0  0  0  0  0  0  0  0  0
   -5.0320   -3.1246   -0.6038 C   0  0  0  0  0  0  0  0  0  0  0  0
    0.1595    4.5523   -0.7271 C   0  0  0  0  0  0  0  0  0  0  0  0
    2.8278   -2.0208    1.0766 C   0  0  0  0  0  0  0  0  0  0  0  0
   -3.9070   -3.8786    0.0157 C   0  0  0  0  0  0  0  0  0  0  0  0
    0.6113    3.1150   -0.8380 C   0  0  0  0  0  0  0  0  0  0  0  0
   -0.8049   -0.7912    1.3157 C   0  0  0  0  0  0  0  0  0  0  0  0
   -1.7293   -0.9373   -1.0414 C   0  0  0  0  0  0  0  0  0  0  0  0
   -1.2183   -0.1119    0.0607 C   0  0  0  0  0  0  0  0  0  0  0  0
    1.6508   -1.0940    1.0725 C   0  0  0  0  0  0  0  0  0  0  0  0
   -2.6464   -3.0843   -0.1433 C   0  0  0  0  0  0  0  0  0  0  0  0
   -0.4621    2.2144   -0.3594 C   0  0  0  0  0  0  0  0  0  0  0  0
    1.8539    0.1203    0.8565 O   0  0  0  0  0  0  0  0  0  0  0  0
   -1.5540   -3.5174    0.2965 O   0  0  0  0  0  0  0  0  0  0  0  0
   -1.5671    2.6224    0.0677 O   0  0  0  0  0  0  0  0  0  0  0  0
    0.3768   -1.5132    1.2925 O   0  0  0  0  0  0  0  0  0  0  0  0
   -2.6622   -1.8883   -0.7624 O   0  0  0  0  0  0  0  0  0  0  0  0
   -0.2561    0.8474   -0.3757 O   0  0  0  0  0  0  0  0  0  0  0  0
    8.5773   -0.5418   -0.5792 H   0  0  0  0  0  0  0  0  0  0  0  0
    7.6649    1.0655   -0.5311 H   0  0  0  0  0  0  0  0  0  0  0  0
    7.9570    0.1944   -2.1134 H   0  0  0  0  0  0  0  0  0  0  0  0
   -8.8077   -2.8379    0.2005 H   0  0  0  0  0  0  0  0  0  0  0  0
   -9.1297   -4.1965   -0.8919 H   0  0  0  0  0  0  0  0  0  0  0  0
  -10.1210   -4.0047    0.5764 H   0  0  0  0  0  0  0  0  0  0  0  0
    2.5325    8.1207   -1.8107 H   0  0  0  0  0  0  0  0  0  0  0  0
    2.2890    8.0148   -0.0249 H   0  0  0  0  0  0  0  0  0  0  0  0
    3.8754    8.5461   -0.7159 H   0  0  0  0  0  0  0  0  0  0  0  0
    5.6278    0.0707   -0.8581 H   0  0  0  0  0  0  0  0  0  0  0  0
    6.3208   -1.4310   -1.5833 H   0  0  0  0  0  0  0  0  0  0  0  0
   -8.4768   -4.9687    1.9238 H   0  0  0  0  0  0  0  0  0  0  0  0
   -8.0691   -5.7601    0.3808 H   0  0  0  0  0  0  0  0  0  0  0  0
    3.8138    6.1923   -1.9684 H   0  0  0  0  0  0  0  0  0  0  0  0
    4.3932    6.3148   -0.2907 H   0  0  0  0  0  0  0  0  0  0  0  0
    6.6510   -0.5622    1.3510 H   0  0  0  0  0  0  0  0  0  0  0  0
    7.4627   -1.9848    0.5300 H   0  0  0  0  0  0  0  0  0  0  0  0
   -5.9775   -4.6552    1.4161 H   0  0  0  0  0  0  0  0  0  0  0  0
   -6.9441   -3.0864    1.3968 H   0  0  0  0  0  0  0  0  0  0  0  0
    2.3347    5.6072    0.6551 H   0  0  0  0  0  0  0  0  0  0  0  0
    2.9279    4.4115   -0.5721 H   0  0  0  0  0  0  0  0  0  0  0  0
    5.3500   -2.7202    1.7224 H   0  0  0  0  0  0  0  0  0  0  0  0
    5.1891   -2.8822   -0.0301 H   0  0  0  0  0  0  0  0  0  0  0  0
   -7.0893   -3.2457   -1.0815 H   0  0  0  0  0  0  0  0  0  0  0  0
   -6.2621   -4.8133   -1.0545 H   0  0  0  0  0  0  0  0  0  0  0  0
    1.4155    5.3326   -2.2629 H   0  0  0  0  0  0  0  0  0  0  0  0
    0.8049    6.5402   -1.0876 H   0  0  0  0  0  0  0  0  0  0  0  0
    3.9530   -0.6389   -0.1311 H   0  0  0  0  0  0  0  0  0  0  0  0
    4.2116   -0.4782    1.6146 H   0  0  0  0  0  0  0  0  0  0  0  0
   -4.8395   -2.9834   -1.7040 H   0  0  0  0  0  0  0  0  0  0  0  0
   -5.1627   -2.1285   -0.1466 H   0  0  0  0  0  0  0  0  0  0  0  0
   -0.7338    4.6566   -1.3861 H   0  0  0  0  0  0  0  0  0  0  0  0
   -0.0932    4.7548    0.3463 H   0  0  0  0  0  0  0  0  0  0  0  0
    2.9250   -2.5596    2.0404 H   0  0  0  0  0  0  0  0  0  0  0  0
    2.7012   -2.7790    0.2839 H   0  0  0  0  0  0  0  0  0  0  0  0
   -4.0994   -3.9154    1.1239 H   0  0  0  0  0  0  0  0  0  0  0  0
   -3.8106   -4.9117   -0.3129 H   0  0  0  0  0  0  0  0  0  0  0  0
    1.5072    3.0094   -0.1599 H   0  0  0  0  0  0  0  0  0  0  0  0
    0.9701    2.8817   -1.8480 H   0  0  0  0  0  0  0  0  0  0  0  0
   -1.6384   -1.3795    1.7540 H   0  0  0  0  0  0  0  0  0  0  0  0
   -0.6999    0.0419    2.1351 H   0  0  0  0  0  0  0  0  0  0  0  0
   -0.8871   -1.4595   -1.6076 H   0  0  0  0  0  0  0  0  0  0  0  0
   -2.2262   -0.2296   -1.8038 H   0  0  0  0  0  0  0  0  0  0  0  0
   -2.0964    0.5639    0.3830 H   0  0  0  0  0  0  0  0  0  0  0  0
  1  4  1  0
  2  5  1  0
  3  6  1  0
  4  7  1  0
  5  8  1  0
  6  9  1  0
  7 10  1  0
  8 11  1  0
  9 12  1  0
 10 13  1  0
 11 14  1  0
 12 15  1  0
 13 16  1  0
 14 17  1  0
 15 18  1  0
 19 21  1  0
 20 21  1  0
 16 22  1  0
 17 23  1  0
 18 24  1  0
 22 25  2  0
 23 26  2  0
 24 27  2  0
 19 28  1  0
 22 28  1  0
 20 29  1  0
 23 29  1  0
 21 30  1  0
 24 30  1  0
  1 31  1  0
  1 32  1  0
  1 33  1  0
  2 34  1  0
  2 35  1  0
  2 36  1  0
  3 37  1  0
  3 38  1  0
  3 39  1  0
  4 40  1  0
  4 41  1  0
  5 42  1  0
  5 43  1  0
  6 44  1  0
  6 45  1  0
  7 46  1  0
  7 47  1  0
  8 48  1  0
  8 49  1  0
  9 50  1  0
  9 51  1  0
 10 52  1  0
 10 53  1  0
 11 54  1  0
 11 55  1  0
 12 56  1  0
 12 57  1  0
 13 58  1  0
 13 59  1  0
 14 60  1  0
 14 61  1  0
 15 62  1  0
 15 63  1  0
 16 64  1  0
 16 65  1  0
 17 66  1  0
 17 67  1  0
 18 68  1  0
 18 69  1  0
 19 70  1  0
 19 71  1  0
 20 72  1  0
 20 73  1  0
 21 74  1  0
M  END

