347827746
     RDKit          3D

101102  0  0  1  0  0  0  0  0999 V2000
   -6.4834    2.7024   -0.3408 C   0  0  0  0  0  0  0  0  0  0  0  0
   -7.6426    1.9212    0.1522 C   0  0  0  0  0  0  0  0  0  0  0  0
   -8.0702    2.4630    1.5049 C   0  0  0  0  0  0  0  0  0  0  0  0
   -7.6338    0.4611    0.0148 C   0  0  0  0  0  0  0  0  0  0  0  0
   -6.5834   -0.3702    0.6301 C   0  0  2  0  0  0  0  0  0  0  0  0
   -6.4179   -0.3101    2.0782 C   0  0  0  0  0  0  0  0  0  0  0  0
   -5.3244   -0.3965    2.6472 O   0  0  0  0  0  0  0  0  0  0  0  0
   -7.5593   -0.1496    2.9058 N   0  0  0  0  0  0  0  0  0  0  0  0
   -5.4477   -0.5648   -0.1902 N   0  0  0  0  0  0  0  0  0  0  0  0
   -4.1788   -0.0258    0.0245 C   0  0  0  0  0  0  0  0  0  0  0  0
   -3.9719    0.7419    1.0235 O   0  0  0  0  0  0  0  0  0  0  0  0
   -3.0357   -0.3028   -0.8499 C   0  0  1  0  0  0  0  0  0  0  0  0
   -3.1073    0.1792   -2.2534 C   0  0  0  0  0  0  0  0  0  0  0  0
   -4.2188   -0.3833   -3.0100 C   0  0  0  0  0  0  0  0  0  0  0  0
   -4.0721   -1.6916   -3.4614 C   0  0  0  0  0  0  0  0  0  0  0  0
   -5.0608   -2.2579   -4.2288 C   0  0  0  0  0  0  0  0  0  0  0  0
   -6.1758   -1.5235   -4.5370 C   0  0  0  0  0  0  0  0  0  0  0  0
   -6.3390   -0.2299   -4.1009 C   0  0  0  0  0  0  0  0  0  0  0  0
   -5.3437    0.3502   -3.3247 C   0  0  0  0  0  0  0  0  0  0  0  0
   -1.8440    0.2937   -0.2159 N   0  0  0  0  0  0  0  0  0  0  0  0
   -0.6139   -0.3967   -0.1075 C   0  0  0  0  0  0  0  0  0  0  0  0
   -0.5528   -1.5516   -0.5861 O   0  0  0  0  0  0  0  0  0  0  0  0
    0.5490    0.1986    0.5332 C   0  0  1  0  0  0  0  0  0  0  0  0
    0.3105    0.5179    2.0023 C   0  0  0  0  0  0  0  0  0  0  0  0
   -0.0215   -0.6695    2.7890 C   0  0  0  0  0  0  0  0  0  0  0  0
    0.9953   -1.3877    3.3723 C   0  0  0  0  0  0  0  0  0  0  0  0
    0.7922   -2.5258    4.1291 C   0  0  0  0  0  0  0  0  0  0  0  0
   -0.4976   -2.9741    4.3154 C   0  0  0  0  0  0  0  0  0  0  0  0
   -1.5446   -2.2578    3.7307 C   0  0  0  0  0  0  0  0  0  0  0  0
   -1.3126   -1.1251    2.9807 C   0  0  0  0  0  0  0  0  0  0  0  0
    1.7401   -0.6555    0.4351 N   0  0  0  0  0  0  0  0  0  0  0  0
    2.9607   -0.1432   -0.0613 C   0  0  0  0  0  0  0  0  0  0  0  0
    3.0356    1.0461   -0.4176 O   0  0  0  0  0  0  0  0  0  0  0  0
    4.1524   -1.0182   -0.1581 C   0  0  1  0  0  0  0  0  0  0  0  0
    3.8139   -2.1928   -1.0668 C   0  0  0  0  0  0  0  0  0  0  0  0
    4.9396   -3.1566   -1.2445 C   0  0  0  0  0  0  0  0  0  0  0  0
    3.3186   -1.6117   -2.3799 C   0  0  0  0  0  0  0  0  0  0  0  0
    5.3083   -0.3009   -0.6343 N   0  0  0  0  0  0  0  0  0  0  0  0
    6.4919   -0.2471    0.1298 C   0  0  0  0  0  0  0  0  0  0  0  0
    6.5207   -0.8442    1.2367 O   0  0  0  0  0  0  0  0  0  0  0  0
    7.6529    0.5034   -0.3877 C   0  0  1  0  0  0  0  0  0  0  0  0
    7.2063    1.9541   -0.5502 C   0  0  0  0  0  0  0  0  0  0  0  0
    6.7555    2.5559    0.7399 C   0  0  0  0  0  0  0  0  0  0  0  0
    7.7909    2.5923    1.8213 C   0  0  0  0  0  0  0  0  0  0  0  0
    6.3463    4.0078    0.4651 C   0  0  0  0  0  0  0  0  0  0  0  0
    8.8058    0.4778    0.4495 N   0  0  0  0  0  0  0  0  0  0  0  0
    9.3770   -0.8140    0.6547 C   0  0  0  0  0  0  0  0  0  0  0  0
   -6.0566    3.3914    0.4326 H   0  0  0  0  0  0  0  0  0  0  0  0
   -5.6838    2.1359   -0.8249 H   0  0  0  0  0  0  0  0  0  0  0  0
   -6.8429    3.4198   -1.1386 H   0  0  0  0  0  0  0  0  0  0  0  0
   -8.5271    2.2616   -0.5244 H   0  0  0  0  0  0  0  0  0  0  0  0
   -7.2117    2.4443    2.1749 H   0  0  0  0  0  0  0  0  0  0  0  0
   -8.3665    3.5525    1.3239 H   0  0  0  0  0  0  0  0  0  0  0  0
   -8.9686    1.9074    1.8166 H   0  0  0  0  0  0  0  0  0  0  0  0
   -7.6410    0.2077   -1.0842 H   0  0  0  0  0  0  0  0  0  0  0  0
   -8.6649    0.1007    0.3584 H   0  0  0  0  0  0  0  0  0  0  0  0
   -7.0873   -1.4729    0.5689 H   0  0  0  0  0  0  0  0  0  0  0  0
   -8.4490   -0.6365    2.6803 H   0  0  0  0  0  0  0  0  0  0  0  0
   -7.5344    0.4532    3.7505 H   0  0  0  0  0  0  0  0  0  0  0  0
   -5.5689   -1.1897   -1.0398 H   0  0  0  0  0  0  0  0  0  0  0  0
   -2.7787   -1.4060   -0.8933 H   0  0  0  0  0  0  0  0  0  0  0  0
   -2.1474   -0.1293   -2.7438 H   0  0  0  0  0  0  0  0  0  0  0  0
   -3.1626    1.3006   -2.2052 H   0  0  0  0  0  0  0  0  0  0  0  0
   -3.1981   -2.2718   -3.2211 H   0  0  0  0  0  0  0  0  0  0  0  0
   -4.9682   -3.2705   -4.5881 H   0  0  0  0  0  0  0  0  0  0  0  0
   -6.9662   -1.9675   -5.1471 H   0  0  0  0  0  0  0  0  0  0  0  0
   -7.2162    0.3624   -4.3379 H   0  0  0  0  0  0  0  0  0  0  0  0
   -5.4039    1.3549   -2.9679 H   0  0  0  0  0  0  0  0  0  0  0  0
   -1.9012    1.2594    0.1699 H   0  0  0  0  0  0  0  0  0  0  0  0
    0.8072    1.1521    0.0530 H   0  0  0  0  0  0  0  0  0  0  0  0
    1.2214    1.0345    2.3727 H   0  0  0  0  0  0  0  0  0  0  0  0
   -0.5177    1.2486    2.0942 H   0  0  0  0  0  0  0  0  0  0  0  0
    2.0470   -1.0856    3.2644 H   0  0  0  0  0  0  0  0  0  0  0  0
    1.5962   -3.0822    4.5812 H   0  0  0  0  0  0  0  0  0  0  0  0
   -0.6988   -3.8693    4.9054 H   0  0  0  0  0  0  0  0  0  0  0  0
   -2.5530   -2.6084    3.8741 H   0  0  0  0  0  0  0  0  0  0  0  0
   -2.1559   -0.5991    2.5461 H   0  0  0  0  0  0  0  0  0  0  0  0
    1.6995   -1.6471    0.7287 H   0  0  0  0  0  0  0  0  0  0  0  0
    4.3672   -1.4241    0.8438 H   0  0  0  0  0  0  0  0  0  0  0  0
    2.9628   -2.7234   -0.5877 H   0  0  0  0  0  0  0  0  0  0  0  0
    4.8435   -3.9938   -0.5165 H   0  0  0  0  0  0  0  0  0  0  0  0
    5.9507   -2.7234   -1.1938 H   0  0  0  0  0  0  0  0  0  0  0  0
    4.7834   -3.6446   -2.2511 H   0  0  0  0  0  0  0  0  0  0  0  0
    3.0411   -0.5217   -2.2660 H   0  0  0  0  0  0  0  0  0  0  0  0
    2.4373   -2.2008   -2.7164 H   0  0  0  0  0  0  0  0  0  0  0  0
    4.0953   -1.6354   -3.1719 H   0  0  0  0  0  0  0  0  0  0  0  0
    5.2648    0.1817   -1.5539 H   0  0  0  0  0  0  0  0  0  0  0  0
    7.9228    0.1499   -1.4140 H   0  0  0  0  0  0  0  0  0  0  0  0
    8.0073    2.5643   -1.0211 H   0  0  0  0  0  0  0  0  0  0  0  0
    6.3467    1.9760   -1.2489 H   0  0  0  0  0  0  0  0  0  0  0  0
    5.8564    1.9933    1.0821 H   0  0  0  0  0  0  0  0  0  0  0  0
    7.4055    3.2818    2.6280 H   0  0  0  0  0  0  0  0  0  0  0  0
    7.9770    1.6432    2.3315 H   0  0  0  0  0  0  0  0  0  0  0  0
    8.7065    3.0933    1.4465 H   0  0  0  0  0  0  0  0  0  0  0  0
    5.5840    4.3513    1.2098 H   0  0  0  0  0  0  0  0  0  0  0  0
    7.2520    4.6541    0.5037 H   0  0  0  0  0  0  0  0  0  0  0  0
    5.9766    4.0523   -0.5788 H   0  0  0  0  0  0  0  0  0  0  0  0
    9.5167    1.1816    0.2343 H   0  0  0  0  0  0  0  0  0  0  0  0
    9.2775   -1.1913    1.6908 H   0  0  0  0  0  0  0  0  0  0  0  0
    9.0368   -1.5659   -0.1076 H   0  0  0  0  0  0  0  0  0  0  0  0
   10.4779   -0.7381    0.4773 H   0  0  0  0  0  0  0  0  0  0  0  0
  1  2  1  0
  2  3  1  0
  2  4  1  0
  4  5  1  0
  5  6  1  0
  6  7  2  0
  6  8  1  0
  5  9  1  0
  9 10  1  0
 10 11  2  0
 10 12  1  0
 12 13  1  0
 13 14  1  0
 14 15  2  0
 15 16  1  0
 16 17  2  0
 17 18  1  0
 18 19  2  0
 14 19  1  0
 12 20  1  0
 20 21  1  0
 21 22  2  0
 21 23  1  0
 23 24  1  0
 24 25  1  0
 25 26  2  0
 26 27  1  0
 27 28  2  0
 28 29  1  0
 29 30  2  0
 25 30  1  0
 23 31  1  0
 31 32  1  0
 32 33  2  0
 32 34  1  0
 34 35  1  0
 35 36  1  0
 35 37  1  0
 34 38  1  0
 38 39  1  0
 39 40  2  0
 39 41  1  0
 41 42  1  0
 42 43  1  0
 43 44  1  0
 43 45  1  0
 41 46  1  0
 46 47  1  0
  1 48  1  0
  1 49  1  0
  1 50  1  0
  2 51  1  0
  3 52  1  0
  3 53  1  0
  3 54  1  0
  4 55  1  0
  4 56  1  0
  5 57  1  1
  8 58  1  0
  8 59  1  0
  9 60  1  0
 12 61  1  6
 13 62  1  0
 13 63  1  0
 15 64  1  0
 16 65  1  0
 17 66  1  0
 18 67  1  0
 19 68  1  0
 20 69  1  0
 23 70  1  6
 24 71  1  0
 24 72  1  0
 26 73  1  0
 27 74  1  0
 28 75  1  0
 29 76  1  0
 30 77  1  0
 31 78  1  0
 34 79  1  1
 35 80  1  0
 36 81  1  0
 36 82  1  0
 36 83  1  0
 37 84  1  0
 37 85  1  0
 37 86  1  0
 38 87  1  0
 41 88  1  6
 42 89  1  0
 42 90  1  0
 43 91  1  0
 44 92  1  0
 44 93  1  0
 44 94  1  0
 45 95  1  0
 45 96  1  0
 45 97  1  0
 46 98  1  0
 47 99  1  0
 47100  1  0
 47101  1  0
M  END

