347829211
     RDKit          3D

 48 49  0  0  1  0  0  0  0  0999 V2000
    5.4378   -2.2429   -0.2186 C   0  0  0  0  0  0  0  0  0  0  0  0
    5.9704   -0.9395    0.3338 C   0  0  0  0  0  0  0  0  0  0  0  0
    5.0984    0.0772   -0.4598 C   0  0  1  0  0  0  0  0  0  0  0  0
    3.8541   -0.5767   -0.3568 N   0  0  0  0  0  0  0  0  0  0  0  0
    4.1268   -1.9317   -0.8811 C   0  0  0  0  0  0  0  0  0  0  0  0
    2.5818   -0.2001    0.0911 C   0  0  0  0  0  0  0  0  0  0  0  0
    2.2697    0.9339    0.5379 O   0  0  0  0  0  0  0  0  0  0  0  0
    1.4254   -1.1705    0.0763 C   0  0  0  0  0  0  0  0  0  0  0  0
    0.1072   -0.5302    0.3753 C   0  0  0  0  0  0  0  0  0  0  0  0
   -0.2863    0.5208   -0.6295 C   0  0  0  0  0  0  0  0  0  0  0  0
   -1.6123    1.1635   -0.3182 C   0  0  0  0  0  0  0  0  0  0  0  0
   -2.7475    0.2325   -0.3180 C   0  0  0  0  0  0  0  0  0  0  0  0
   -2.6275   -0.9554   -0.6880 O   0  0  0  0  0  0  0  0  0  0  0  0
   -4.0392    0.6987    0.1192 N   0  0  0  0  0  0  0  0  0  0  0  0
   -4.3022    2.0480    0.5609 C   0  0  0  0  0  0  0  0  0  0  0  0
   -5.8176    2.1723    0.5952 C   0  0  0  0  0  0  0  0  0  0  0  0
   -6.2353    0.7608    0.9177 C   0  0  0  0  0  0  0  0  0  0  0  0
   -5.2303   -0.0741    0.1783 C   0  0  2  0  0  0  0  0  0  0  0  0
   -5.0646   -1.3466    0.9301 C   0  0  0  0  0  0  0  0  0  0  0  0
   -6.0343   -2.1319    1.0134 O   0  0  0  0  0  0  0  0  0  0  0  0
   -3.8504   -1.6305    1.5168 O   0  0  0  0  0  0  0  0  0  0  0  0
    5.2779    1.4136    0.0368 C   0  0  0  0  0  0  0  0  0  0  0  0
    4.4532    2.1293    0.6073 O   0  0  0  0  0  0  0  0  0  0  0  0
    6.5527    1.9895   -0.1454 O   0  0  0  0  0  0  0  0  0  0  0  0
    5.3669   -3.0378    0.5480 H   0  0  0  0  0  0  0  0  0  0  0  0
    6.1412   -2.5566   -1.0407 H   0  0  0  0  0  0  0  0  0  0  0  0
    5.6572   -0.7950    1.3848 H   0  0  0  0  0  0  0  0  0  0  0  0
    7.0294   -0.7748    0.1418 H   0  0  0  0  0  0  0  0  0  0  0  0
    5.4801   -0.0466   -1.5258 H   0  0  0  0  0  0  0  0  0  0  0  0
    3.3309   -2.6366   -0.6488 H   0  0  0  0  0  0  0  0  0  0  0  0
    4.2478   -1.7757   -1.9857 H   0  0  0  0  0  0  0  0  0  0  0  0
    1.3362   -1.6223   -0.9550 H   0  0  0  0  0  0  0  0  0  0  0  0
    1.6451   -2.0261    0.7424 H   0  0  0  0  0  0  0  0  0  0  0  0
   -0.6459   -1.3433    0.3485 H   0  0  0  0  0  0  0  0  0  0  0  0
    0.1094   -0.0854    1.4071 H   0  0  0  0  0  0  0  0  0  0  0  0
   -0.3641    0.0840   -1.6595 H   0  0  0  0  0  0  0  0  0  0  0  0
    0.4388    1.3461   -0.7362 H   0  0  0  0  0  0  0  0  0  0  0  0
   -1.5196    1.5977    0.7188 H   0  0  0  0  0  0  0  0  0  0  0  0
   -1.8092    2.0002   -1.0443 H   0  0  0  0  0  0  0  0  0  0  0  0
   -3.8565    2.7426   -0.1835 H   0  0  0  0  0  0  0  0  0  0  0  0
   -3.8714    2.2261    1.5618 H   0  0  0  0  0  0  0  0  0  0  0  0
   -6.2020    2.4568   -0.4029 H   0  0  0  0  0  0  0  0  0  0  0  0
   -6.1402    2.8895    1.3684 H   0  0  0  0  0  0  0  0  0  0  0  0
   -7.2823    0.5568    0.6131 H   0  0  0  0  0  0  0  0  0  0  0  0
   -6.0944    0.6303    2.0162 H   0  0  0  0  0  0  0  0  0  0  0  0
   -5.6423   -0.2900   -0.8360 H   0  0  0  0  0  0  0  0  0  0  0  0
   -3.6037   -2.5820    1.7202 H   0  0  0  0  0  0  0  0  0  0  0  0
    6.9406    2.6322    0.5318 H   0  0  0  0  0  0  0  0  0  0  0  0
  1  2  1  0
  2  3  1  0
  3  4  1  0
  4  5  1  0
  1  5  1  0
  4  6  1  0
  6  7  2  0
  6  8  1  0
  8  9  1  0
  9 10  1  0
 10 11  1  0
 11 12  1  0
 12 13  2  0
 12 14  1  0
 14 15  1  0
 15 16  1  0
 16 17  1  0
 17 18  1  0
 14 18  1  0
 18 19  1  0
 19 20  2  0
 19 21  1  0
  3 22  1  0
 22 23  2  0
 22 24  1  0
  1 25  1  0
  1 26  1  0
  2 27  1  0
  2 28  1  0
  3 29  1  6
  5 30  1  0
  5 31  1  0
  8 32  1  0
  8 33  1  0
  9 34  1  0
  9 35  1  0
 10 36  1  0
 10 37  1  0
 11 38  1  0
 11 39  1  0
 15 40  1  0
 15 41  1  0
 16 42  1  0
 16 43  1  0
 17 44  1  0
 17 45  1  0
 18 46  1  6
 21 47  1  0
 24 48  1  0
M  END

