347828862
     RDKit          3D

 49 52  0  0  0  0  0  0  0  0999 V2000
   -3.6220    2.2568    0.7902 C   0  0  0  0  0  0  0  0  0  0  0  0
   -4.2053    1.0031    0.2180 C   0  0  0  0  0  0  0  0  0  0  0  0
   -5.3652    0.3834    0.7166 C   0  0  0  0  0  0  0  0  0  0  0  0
   -6.2520    0.7498    1.6816 C   0  0  0  0  0  0  0  0  0  0  0  0
   -7.3437   -0.1061    1.9260 C   0  0  0  0  0  0  0  0  0  0  0  0
   -7.4930   -1.2904    1.1907 C   0  0  0  0  0  0  0  0  0  0  0  0
   -6.5736   -1.6168    0.2347 C   0  0  0  0  0  0  0  0  0  0  0  0
   -5.4797   -0.7927   -0.0397 C   0  0  0  0  0  0  0  0  0  0  0  0
   -4.5032   -0.8819   -0.8943 O   0  0  0  0  0  0  0  0  0  0  0  0
   -3.7052    0.2217   -0.7699 C   0  0  0  0  0  0  0  0  0  0  0  0
   -2.5719    0.4212   -1.6644 C   0  0  0  0  0  0  0  0  0  0  0  0
   -1.3809   -0.3843   -1.4904 N   0  0  0  0  0  0  0  0  0  0  0  0
   -1.2890   -1.7545   -1.9083 C   0  0  0  0  0  0  0  0  0  0  0  0
   -0.3589    0.2918   -0.7930 C   0  0  0  0  0  0  0  0  0  0  0  0
   -0.7357    1.4521   -0.2725 O   0  0  0  0  0  0  0  0  0  0  0  0
    0.9985    0.0077   -0.5334 C   0  0  0  0  0  0  0  0  0  0  0  0
    1.7725   -1.0025   -0.8252 C   0  0  0  0  0  0  0  0  0  0  0  0
    3.1786   -0.9645   -0.4048 C   0  0  0  0  0  0  0  0  0  0  0  0
    3.7224    0.0924    0.2810 C   0  0  0  0  0  0  0  0  0  0  0  0
    5.0981    0.1473    0.5681 C   0  0  0  0  0  0  0  0  0  0  0  0
    5.8872   -0.8561    0.1607 C   0  0  0  0  0  0  0  0  0  0  0  0
    5.3688   -1.9321   -0.5223 N   0  0  0  0  0  0  0  0  0  0  0  0
    4.0584   -2.0016   -0.8055 C   0  0  0  0  0  0  0  0  0  0  0  0
    7.2777   -0.7803    0.3606 N   0  0  0  0  0  0  0  0  0  0  0  0
    7.8433    0.3563    0.9831 C   0  0  0  0  0  0  0  0  0  0  0  0
    9.0611    0.3110    1.3595 O   0  0  0  0  0  0  0  0  0  0  0  0
    7.0468    1.5876    1.1977 C   0  0  0  0  0  0  0  0  0  0  0  0
    5.5757    1.3346    1.3478 C   0  0  0  0  0  0  0  0  0  0  0  0
   -3.2807    2.9826    0.0514 H   0  0  0  0  0  0  0  0  0  0  0  0
   -2.7265    1.9569    1.4377 H   0  0  0  0  0  0  0  0  0  0  0  0
   -4.3059    2.7228    1.5427 H   0  0  0  0  0  0  0  0  0  0  0  0
   -6.0946    1.6682    2.2444 H   0  0  0  0  0  0  0  0  0  0  0  0
   -8.0578    0.1725    2.6629 H   0  0  0  0  0  0  0  0  0  0  0  0
   -8.3053   -1.9736    1.3413 H   0  0  0  0  0  0  0  0  0  0  0  0
   -6.6443   -2.5226   -0.3484 H   0  0  0  0  0  0  0  0  0  0  0  0
   -2.3558    1.5221   -1.7202 H   0  0  0  0  0  0  0  0  0  0  0  0
   -2.8950    0.1266   -2.7419 H   0  0  0  0  0  0  0  0  0  0  0  0
   -0.7423   -1.9133   -2.8462 H   0  0  0  0  0  0  0  0  0  0  0  0
   -0.8457   -2.3511   -1.0255 H   0  0  0  0  0  0  0  0  0  0  0  0
   -2.3309   -2.2155   -2.0052 H   0  0  0  0  0  0  0  0  0  0  0  0
    1.5397    0.8550    0.0327 H   0  0  0  0  0  0  0  0  0  0  0  0
    1.3475   -1.8309   -1.3806 H   0  0  0  0  0  0  0  0  0  0  0  0
    3.1251    0.9166    0.6234 H   0  0  0  0  0  0  0  0  0  0  0  0
    3.7023   -2.8486   -1.3459 H   0  0  0  0  0  0  0  0  0  0  0  0
    7.8961   -1.5504    0.0644 H   0  0  0  0  0  0  0  0  0  0  0  0
    7.3601    2.1285    2.1476 H   0  0  0  0  0  0  0  0  0  0  0  0
    7.2835    2.3461    0.3920 H   0  0  0  0  0  0  0  0  0  0  0  0
    5.0516    2.2898    0.9780 H   0  0  0  0  0  0  0  0  0  0  0  0
    5.2693    1.2652    2.4103 H   0  0  0  0  0  0  0  0  0  0  0  0
  1  2  1  0
  2  3  1  0
  3  4  2  0
  4  5  1  0
  5  6  2  0
  6  7  1  0
  7  8  2  0
  3  8  1  0
  8  9  1  0
  9 10  1  0
  2 10  2  0
 10 11  1  0
 11 12  1  0
 12 13  1  0
 12 14  1  0
 14 15  2  0
 14 16  1  0
 16 17  2  0
 17 18  1  0
 18 19  2  0
 19 20  1  0
 20 21  2  0
 21 22  1  0
 22 23  2  0
 18 23  1  0
 21 24  1  0
 24 25  1  0
 25 26  2  0
 25 27  1  0
 27 28  1  0
 20 28  1  0
  1 29  1  0
  1 30  1  0
  1 31  1  0
  4 32  1  0
  5 33  1  0
  6 34  1  0
  7 35  1  0
 11 36  1  0
 11 37  1  0
 13 38  1  0
 13 39  1  0
 13 40  1  0
 16 41  1  0
 17 42  1  0
 19 43  1  0
 23 44  1  0
 24 45  1  0
 27 46  1  0
 27 47  1  0
 28 48  1  0
 28 49  1  0
M  END

