347827707
     RDKit          3D

 72 74  0  0  1  0  0  0  0  0999 V2000
   -1.7680    2.7138   -0.4731 C   0  0  0  0  0  0  0  0  0  0  0  0
   -2.5532    3.6999   -1.1757 C   0  0  0  0  0  0  0  0  0  0  0  0
   -2.6785    4.9623   -0.7919 C   0  0  0  0  0  0  0  0  0  0  0  0
   -3.4997    5.9014   -1.5649 C   0  0  0  0  0  0  0  0  0  0  0  0
   -4.0983    5.5295   -2.6072 O   0  0  0  0  0  0  0  0  0  0  0  0
   -3.6421    7.2203   -1.1753 O   0  0  0  0  0  0  0  0  0  0  0  0
   -1.1362    3.0090    0.5579 O   0  0  0  0  0  0  0  0  0  0  0  0
   -1.7222    1.4240   -0.9569 O   0  0  0  0  0  0  0  0  0  0  0  0
   -1.0313    0.3960   -0.3826 C   0  0  0  0  0  0  0  0  0  0  0  0
   -1.6973   -0.7411    0.0665 C   0  0  0  0  0  0  0  0  0  0  0  0
   -0.9888   -1.8032    0.6695 C   0  0  0  0  0  0  0  0  0  0  0  0
    0.4242   -1.6612    0.7871 C   0  0  0  0  0  0  0  0  0  0  0  0
    1.0588   -0.5505    0.3397 C   0  0  0  0  0  0  0  0  0  0  0  0
    0.3363    0.4561   -0.2314 C   0  0  0  0  0  0  0  0  0  0  0  0
    2.5652   -0.5012    0.4753 C   0  0  0  0  0  0  0  0  0  0  0  0
    3.1499    0.5260   -0.3950 C   0  0  0  0  0  0  0  0  0  0  0  0
    4.6255    0.6165   -0.4072 C   0  0  0  0  0  0  0  0  0  0  0  0
    5.3609    0.9271    0.8363 C   0  0  0  0  0  0  0  0  0  0  0  0
    6.8502    1.0342    0.4673 C   0  0  0  0  0  0  0  0  0  0  0  0
    7.4270   -0.2087   -0.1082 C   0  0  0  0  0  0  0  0  0  0  0  0
    8.9114    0.0976   -0.3950 C   0  0  0  0  0  0  0  0  0  0  0  0
    2.8230   -0.1821    1.9544 C   0  0  0  0  0  0  0  0  0  0  0  0
    3.0710   -1.8735    0.1259 C   0  0  0  0  0  0  0  0  0  0  0  0
   -1.4605   -2.9297    1.1605 O   0  0  0  0  0  0  0  0  0  0  0  0
   -3.1444   -0.8632   -0.0326 C   0  0  2  0  0  0  0  0  0  0  0  0
   -3.7223   -2.2215   -0.2620 C   0  0  1  0  0  0  0  0  0  0  0  0
   -5.0470   -2.3649    0.4049 C   0  0  0  0  0  0  0  0  0  0  0  0
   -5.6559   -1.6086   -0.7798 C   0  0  1  0  0  0  0  0  0  0  0  0
   -5.3753   -0.1843   -0.6858 C   0  0  0  0  0  0  0  0  0  0  0  0
   -3.9059    0.2030   -0.7337 C   0  0  0  0  0  0  0  0  0  0  0  0
   -6.1928    0.6806   -0.5769 O   0  0  0  0  0  0  0  0  0  0  0  0
   -4.5449   -2.2101   -1.6072 C   0  0  0  0  0  0  0  0  0  0  0  0
   -5.2605   -1.6507    1.7111 C   0  0  0  0  0  0  0  0  0  0  0  0
   -5.4841   -3.8168    0.4551 C   0  0  0  0  0  0  0  0  0  0  0  0
   -3.0909    3.4324   -2.0742 H   0  0  0  0  0  0  0  0  0  0  0  0
   -2.1719    5.2907    0.0876 H   0  0  0  0  0  0  0  0  0  0  0  0
   -4.4000    7.7913   -1.5176 H   0  0  0  0  0  0  0  0  0  0  0  0
    0.9919   -2.4744    1.2657 H   0  0  0  0  0  0  0  0  0  0  0  0
    0.8821    1.3330   -0.5758 H   0  0  0  0  0  0  0  0  0  0  0  0
    2.7336    0.3928   -1.4449 H   0  0  0  0  0  0  0  0  0  0  0  0
    2.7927    1.5660   -0.0859 H   0  0  0  0  0  0  0  0  0  0  0  0
    5.0928   -0.3553   -0.7969 H   0  0  0  0  0  0  0  0  0  0  0  0
    4.9157    1.3763   -1.2031 H   0  0  0  0  0  0  0  0  0  0  0  0
    5.2709    0.1118    1.5886 H   0  0  0  0  0  0  0  0  0  0  0  0
    5.0979    1.9342    1.2474 H   0  0  0  0  0  0  0  0  0  0  0  0
    7.4490    1.3019    1.3671 H   0  0  0  0  0  0  0  0  0  0  0  0
    6.9895    1.8629   -0.2493 H   0  0  0  0  0  0  0  0  0  0  0  0
    7.0144   -0.4947   -1.0938 H   0  0  0  0  0  0  0  0  0  0  0  0
    7.3959   -1.0711    0.5971 H   0  0  0  0  0  0  0  0  0  0  0  0
    9.2361    0.8637    0.3242 H   0  0  0  0  0  0  0  0  0  0  0  0
    8.9393    0.5910   -1.3980 H   0  0  0  0  0  0  0  0  0  0  0  0
    9.5321   -0.8257   -0.3524 H   0  0  0  0  0  0  0  0  0  0  0  0
    1.8326   -0.2144    2.5271 H   0  0  0  0  0  0  0  0  0  0  0  0
    3.4292   -0.9353    2.4459 H   0  0  0  0  0  0  0  0  0  0  0  0
    3.1425    0.8533    2.0146 H   0  0  0  0  0  0  0  0  0  0  0  0
    2.2581   -2.5426   -0.2709 H   0  0  0  0  0  0  0  0  0  0  0  0
    3.4951   -2.3936    1.0199 H   0  0  0  0  0  0  0  0  0  0  0  0
    3.8217   -1.8774   -0.7102 H   0  0  0  0  0  0  0  0  0  0  0  0
   -2.0344   -3.5758    1.4107 H   0  0  0  0  0  0  0  0  0  0  0  0
   -3.4579   -0.6776    1.1008 H   0  0  0  0  0  0  0  0  0  0  0  0
   -3.0631   -3.0834   -0.3750 H   0  0  0  0  0  0  0  0  0  0  0  0
   -6.6725   -1.9370   -1.0408 H   0  0  0  0  0  0  0  0  0  0  0  0
   -3.9100    1.1304   -0.0870 H   0  0  0  0  0  0  0  0  0  0  0  0
   -3.6206    0.3836   -1.7715 H   0  0  0  0  0  0  0  0  0  0  0  0
   -4.7387   -3.2299   -1.9425 H   0  0  0  0  0  0  0  0  0  0  0  0
   -4.1163   -1.5043   -2.3232 H   0  0  0  0  0  0  0  0  0  0  0  0
   -5.4181   -0.5843    1.5001 H   0  0  0  0  0  0  0  0  0  0  0  0
   -6.2566   -2.0224    2.0916 H   0  0  0  0  0  0  0  0  0  0  0  0
   -4.5213   -1.8680    2.4812 H   0  0  0  0  0  0  0  0  0  0  0  0
   -5.8949   -4.0282    1.4584 H   0  0  0  0  0  0  0  0  0  0  0  0
   -6.2871   -4.0279   -0.2941 H   0  0  0  0  0  0  0  0  0  0  0  0
   -4.6526   -4.5178    0.2759 H   0  0  0  0  0  0  0  0  0  0  0  0
  1  2  1  0
  2  3  2  0
  3  4  1  0
  4  5  2  0
  4  6  1  0
  1  7  2  0
  1  8  1  0
  8  9  1  0
  9 10  2  0
 10 11  1  0
 11 12  2  0
 12 13  1  0
 13 14  2  0
  9 14  1  0
 13 15  1  0
 15 16  1  0
 16 17  1  0
 17 18  1  0
 18 19  1  0
 19 20  1  0
 20 21  1  0
 15 22  1  0
 15 23  1  0
 11 24  1  0
 25 10  1  0
 25 26  1  0
 26 27  1  0
 27 28  1  0
 28 29  1  0
 25 30  1  0
 29 30  1  0
 29 31  2  0
 26 32  1  0
 28 32  1  0
 27 33  1  0
 27 34  1  0
  2 35  1  0
  3 36  1  0
  6 37  1  0
 12 38  1  0
 14 39  1  0
 16 40  1  0
 16 41  1  0
 17 42  1  0
 17 43  1  0
 18 44  1  0
 18 45  1  0
 19 46  1  0
 19 47  1  0
 20 48  1  0
 20 49  1  0
 21 50  1  0
 21 51  1  0
 21 52  1  0
 22 53  1  0
 22 54  1  0
 22 55  1  0
 23 56  1  0
 23 57  1  0
 23 58  1  0
 24 59  1  0
 25 60  1  1
 26 61  1  6
 28 62  1  6
 30 63  1  0
 30 64  1  0
 32 65  1  0
 32 66  1  0
 33 67  1  0
 33 68  1  0
 33 69  1  0
 34 70  1  0
 34 71  1  0
 34 72  1  0
M  END

