347828747
     RDKit          3D

 70 73  0  0  1  0  0  0  0  0999 V2000
    3.9550    2.6902    0.3719 C   0  0  0  0  0  0  0  0  0  0  0  0
    3.1426    1.7108   -0.4624 C   0  0  2  0  0  0  0  0  0  0  0  0
    1.7038    1.9976   -0.3988 C   0  0  0  0  0  0  0  0  0  0  0  0
    0.7654    0.9262   -0.1273 N   0  0  0  0  0  0  0  0  0  0  0  0
    1.2079   -0.4580   -0.0217 C   0  0  0  0  0  0  0  0  0  0  0  0
    2.4918   -0.5543   -0.8721 C   0  0  1  0  0  0  0  0  0  0  0  0
    3.4918    0.3090   -0.0645 C   0  0  1  0  0  0  0  0  0  0  0  0
    4.8702   -0.1344   -0.3808 C   0  0  0  0  0  0  0  0  0  0  0  0
    5.4396   -1.0786    0.4845 C   0  0  0  0  0  0  0  0  0  0  0  0
    6.6964   -1.5999    0.2757 C   0  0  0  0  0  0  0  0  0  0  0  0
    7.4451   -1.1938   -0.8162 C   0  0  0  0  0  0  0  0  0  0  0  0
    6.8766   -0.2525   -1.6741 C   0  0  0  0  0  0  0  0  0  0  0  0
    5.6143    0.2566   -1.4468 C   0  0  0  0  0  0  0  0  0  0  0  0
    3.2284    0.1621    1.2749 O   0  0  0  0  0  0  0  0  0  0  0  0
    2.9299   -1.9551   -1.0640 C   0  0  0  0  0  0  0  0  0  0  0  0
   -0.6176    1.2392    0.0238 C   0  0  0  0  0  0  0  0  0  0  0  0
   -0.8097    2.5416   -0.2183 O   0  0  0  0  0  0  0  0  0  0  0  0
   -1.7666    0.5132    0.3731 C   0  0  2  0  0  0  0  0  0  0  0  0
   -1.7542   -1.0133    0.1938 C   0  0  0  0  0  0  0  0  0  0  0  0
   -3.1190   -1.2999    0.6854 N   0  0  0  0  0  0  0  0  0  0  0  0
   -3.9230   -0.4099   -0.0520 C   0  0  0  0  0  0  0  0  0  0  0  0
   -3.0276    0.7689   -0.4644 C   0  0  1  0  0  0  0  0  0  0  0  0
   -3.7089    2.0164   -0.0857 C   0  0  0  0  0  0  0  0  0  0  0  0
   -3.9356    2.2924    1.2419 C   0  0  0  0  0  0  0  0  0  0  0  0
   -4.5099    3.5108    1.5995 C   0  0  0  0  0  0  0  0  0  0  0  0
   -4.8493    4.4138    0.6449 C   0  0  0  0  0  0  0  0  0  0  0  0
   -4.6269    4.1485   -0.7331 C   0  0  0  0  0  0  0  0  0  0  0  0
   -4.0626    2.9634   -1.0702 C   0  0  0  0  0  0  0  0  0  0  0  0
   -3.8291    2.5576   -2.3712 F   0  0  0  0  0  0  0  0  0  0  0  0
   -5.4264    5.5942    0.9501 F   0  0  0  0  0  0  0  0  0  0  0  0
   -3.5134   -2.6695    0.6239 C   0  0  0  0  0  0  0  0  0  0  0  0
   -5.0283   -2.6842    0.8780 C   0  0  0  0  0  0  0  0  0  0  0  0
   -2.8585   -3.4903    1.7110 C   0  0  0  0  0  0  0  0  0  0  0  0
   -3.2933   -3.3466   -0.6947 C   0  0  0  0  0  0  0  0  0  0  0  0
    4.7889    2.1420    0.8475 H   0  0  0  0  0  0  0  0  0  0  0  0
    3.3543    3.1046    1.2158 H   0  0  0  0  0  0  0  0  0  0  0  0
    4.3367    3.5436   -0.2192 H   0  0  0  0  0  0  0  0  0  0  0  0
    3.4817    1.9051   -1.5323 H   0  0  0  0  0  0  0  0  0  0  0  0
    1.3898    2.5198   -1.3623 H   0  0  0  0  0  0  0  0  0  0  0  0
    1.5275    2.8440    0.3613 H   0  0  0  0  0  0  0  0  0  0  0  0
    1.5162   -0.7326    1.0105 H   0  0  0  0  0  0  0  0  0  0  0  0
    0.5593   -1.1950   -0.4907 H   0  0  0  0  0  0  0  0  0  0  0  0
    2.2389   -0.0190   -1.8019 H   0  0  0  0  0  0  0  0  0  0  0  0
    4.9041   -1.4218    1.3507 H   0  0  0  0  0  0  0  0  0  0  0  0
    7.1662   -2.3417    0.9337 H   0  0  0  0  0  0  0  0  0  0  0  0
    8.4408   -1.5979   -1.0348 H   0  0  0  0  0  0  0  0  0  0  0  0
    7.4453    0.0649   -2.5305 H   0  0  0  0  0  0  0  0  0  0  0  0
    5.1998    0.9933   -2.1251 H   0  0  0  0  0  0  0  0  0  0  0  0
    3.3711    1.0051    1.7658 H   0  0  0  0  0  0  0  0  0  0  0  0
    2.5398   -2.3251   -2.0720 H   0  0  0  0  0  0  0  0  0  0  0  0
    2.5363   -2.5988   -0.2714 H   0  0  0  0  0  0  0  0  0  0  0  0
    4.0288   -2.0647   -1.1776 H   0  0  0  0  0  0  0  0  0  0  0  0
   -2.0300    0.6768    1.4691 H   0  0  0  0  0  0  0  0  0  0  0  0
   -1.6801   -1.2827   -0.8443 H   0  0  0  0  0  0  0  0  0  0  0  0
   -1.0872   -1.4772    0.8871 H   0  0  0  0  0  0  0  0  0  0  0  0
   -4.1473   -0.9225   -1.0624 H   0  0  0  0  0  0  0  0  0  0  0  0
   -4.8933   -0.1147    0.3431 H   0  0  0  0  0  0  0  0  0  0  0  0
   -2.8412    0.7397   -1.5241 H   0  0  0  0  0  0  0  0  0  0  0  0
   -3.7077    1.6177    2.0786 H   0  0  0  0  0  0  0  0  0  0  0  0
   -4.6552    3.7335    2.6757 H   0  0  0  0  0  0  0  0  0  0  0  0
   -4.9130    4.8574   -1.5118 H   0  0  0  0  0  0  0  0  0  0  0  0
   -5.3491   -3.7018    1.0507 H   0  0  0  0  0  0  0  0  0  0  0  0
   -5.5223   -2.2254   -0.0220 H   0  0  0  0  0  0  0  0  0  0  0  0
   -5.2798   -2.0832    1.7859 H   0  0  0  0  0  0  0  0  0  0  0  0
   -2.9332   -3.0311    2.6836 H   0  0  0  0  0  0  0  0  0  0  0  0
   -3.4095   -4.4818    1.8027 H   0  0  0  0  0  0  0  0  0  0  0  0
   -1.8117   -3.7844    1.4346 H   0  0  0  0  0  0  0  0  0  0  0  0
   -2.2703   -3.2438   -1.0391 H   0  0  0  0  0  0  0  0  0  0  0  0
   -4.0821   -3.1158   -1.4343 H   0  0  0  0  0  0  0  0  0  0  0  0
   -3.4118   -4.4591   -0.4871 H   0  0  0  0  0  0  0  0  0  0  0  0
  2  1  1  0
  2  3  1  0
  3  4  1  0
  4  5  1  0
  5  6  1  0
  6  7  1  0
  2  7  1  0
  7  8  1  0
  8  9  2  0
  9 10  1  0
 10 11  2  0
 11 12  1  0
 12 13  2  0
  8 13  1  0
  7 14  1  1
  6 15  1  0
  4 16  1  0
 16 17  2  0
 18 16  1  0
 18 19  1  0
 19 20  1  0
 20 21  1  0
 21 22  1  0
 18 22  1  0
 22 23  1  0
 23 24  2  0
 24 25  1  0
 25 26  2  0
 26 27  1  0
 27 28  2  0
 23 28  1  0
 28 29  1  0
 26 30  1  0
 20 31  1  0
 31 32  1  0
 31 33  1  0
 31 34  1  0
  1 35  1  0
  1 36  1  0
  1 37  1  0
  2 38  1  6
  3 39  1  0
  3 40  1  0
  5 41  1  0
  5 42  1  0
  6 43  1  6
  9 44  1  0
 10 45  1  0
 11 46  1  0
 12 47  1  0
 13 48  1  0
 14 49  1  0
 15 50  1  0
 15 51  1  0
 15 52  1  0
 18 53  1  1
 19 54  1  0
 19 55  1  0
 21 56  1  0
 21 57  1  0
 22 58  1  6
 24 59  1  0
 25 60  1  0
 27 61  1  0
 32 62  1  0
 32 63  1  0
 32 64  1  0
 33 65  1  0
 33 66  1  0
 33 67  1  0
 34 68  1  0
 34 69  1  0
 34 70  1  0
M  END

