347828784
     RDKit          3D

 50 53  0  0  0  0  0  0  0  0999 V2000
    4.0969   -1.7636    1.0122 C   0  0  0  0  0  0  0  0  0  0  0  0
    3.2832   -0.6131    0.5881 C   0  0  0  0  0  0  0  0  0  0  0  0
    1.8885   -0.7151    0.5002 C   0  0  0  0  0  0  0  0  0  0  0  0
    1.1467    0.3538    0.1154 C   0  0  0  0  0  0  0  0  0  0  0  0
    1.7744    1.5203   -0.1825 C   0  0  0  0  0  0  0  0  0  0  0  0
    3.1236    1.6358   -0.1027 N   0  0  0  0  0  0  0  0  0  0  0  0
    3.9006    0.5769    0.2820 C   0  0  0  0  0  0  0  0  0  0  0  0
    5.3466    0.7084    0.3708 C   0  0  0  0  0  0  0  0  0  0  0  0
    5.8969    1.8111    1.0069 C   0  0  0  0  0  0  0  0  0  0  0  0
    7.2582    1.9910    1.1138 C   0  0  0  0  0  0  0  0  0  0  0  0
    8.1065    1.0852    0.5944 N   0  0  0  0  0  0  0  0  0  0  0  0
    7.6174    0.0172   -0.0216 C   0  0  0  0  0  0  0  0  0  0  0  0
    6.2408   -0.1996   -0.1499 C   0  0  0  0  0  0  0  0  0  0  0  0
    8.5168   -1.0060   -0.6085 C   0  0  0  0  0  0  0  0  0  0  0  0
   -0.3521    0.2621    0.0155 C   0  0  0  0  0  0  0  0  0  0  0  0
   -0.7716   -0.1612   -1.3185 C   0  0  0  0  0  0  0  0  0  0  0  0
    0.2184   -0.3684   -2.1362 O   0  0  0  0  0  0  0  0  0  0  0  0
   -2.0327   -0.3738   -1.8443 N   0  0  0  0  0  0  0  0  0  0  0  0
   -3.3015   -0.2420   -1.2332 C   0  0  0  0  0  0  0  0  0  0  0  0
   -3.5813    0.1294    0.0339 C   0  0  0  0  0  0  0  0  0  0  0  0
   -4.8801    0.2299    0.5442 C   0  0  0  0  0  0  0  0  0  0  0  0
   -5.9476   -0.0522   -0.2431 C   0  0  0  0  0  0  0  0  0  0  0  0
   -5.6486   -0.4362   -1.5544 C   0  0  0  0  0  0  0  0  0  0  0  0
   -4.4085   -0.5231   -2.0118 N   0  0  0  0  0  0  0  0  0  0  0  0
   -7.3183    0.0208    0.1860 C   0  0  0  0  0  0  0  0  0  0  0  0
   -7.6685    0.3875    1.4474 C   0  0  0  0  0  0  0  0  0  0  0  0
   -8.9603    0.4402    1.7986 N   0  0  0  0  0  0  0  0  0  0  0  0
   -9.9410    0.1437    0.9519 C   0  0  0  0  0  0  0  0  0  0  0  0
   -9.6080   -0.2298   -0.3297 C   0  0  0  0  0  0  0  0  0  0  0  0
   -8.3130   -0.2848   -0.6890 N   0  0  0  0  0  0  0  0  0  0  0  0
    3.4700   -2.3078    1.7840 H   0  0  0  0  0  0  0  0  0  0  0  0
    4.2085   -2.5362    0.1978 H   0  0  0  0  0  0  0  0  0  0  0  0
    5.0236   -1.5189    1.5284 H   0  0  0  0  0  0  0  0  0  0  0  0
    1.4305   -1.6747    0.7502 H   0  0  0  0  0  0  0  0  0  0  0  0
    1.2331    2.3964   -0.4922 H   0  0  0  0  0  0  0  0  0  0  0  0
    5.2509    2.5628    1.4380 H   0  0  0  0  0  0  0  0  0  0  0  0
    7.6952    2.8478    1.6081 H   0  0  0  0  0  0  0  0  0  0  0  0
    5.8830   -1.0703   -0.6564 H   0  0  0  0  0  0  0  0  0  0  0  0
    9.4544   -0.5054   -0.9197 H   0  0  0  0  0  0  0  0  0  0  0  0
    8.7147   -1.8153    0.1311 H   0  0  0  0  0  0  0  0  0  0  0  0
    8.0288   -1.4072   -1.5123 H   0  0  0  0  0  0  0  0  0  0  0  0
   -0.6689   -0.4905    0.7650 H   0  0  0  0  0  0  0  0  0  0  0  0
   -0.7485    1.2808    0.2352 H   0  0  0  0  0  0  0  0  0  0  0  0
   -2.0384   -0.6908   -2.8862 H   0  0  0  0  0  0  0  0  0  0  0  0
   -2.7832    0.3640    0.7020 H   0  0  0  0  0  0  0  0  0  0  0  0
   -5.0056    0.5322    1.5618 H   0  0  0  0  0  0  0  0  0  0  0  0
   -6.5011   -0.6679   -2.2046 H   0  0  0  0  0  0  0  0  0  0  0  0
   -6.9246    0.6392    2.1787 H   0  0  0  0  0  0  0  0  0  0  0  0
  -10.9925    0.1852    1.2329 H   0  0  0  0  0  0  0  0  0  0  0  0
  -10.4121   -0.4678   -1.0073 H   0  0  0  0  0  0  0  0  0  0  0  0
  1  2  1  0
  2  3  2  0
  3  4  1  0
  4  5  2  0
  5  6  1  0
  6  7  2  0
  2  7  1  0
  7  8  1  0
  8  9  2  0
  9 10  1  0
 10 11  2  0
 11 12  1  0
 12 13  2  0
  8 13  1  0
 12 14  1  0
  4 15  1  0
 15 16  1  0
 16 17  2  0
 16 18  1  0
 18 19  1  0
 19 20  2  0
 20 21  1  0
 21 22  2  0
 22 23  1  0
 23 24  2  0
 19 24  1  0
 22 25  1  0
 25 26  2  0
 26 27  1  0
 27 28  2  0
 28 29  1  0
 29 30  2  0
 25 30  1  0
  1 31  1  0
  1 32  1  0
  1 33  1  0
  3 34  1  0
  5 35  1  0
  9 36  1  0
 10 37  1  0
 13 38  1  0
 14 39  1  0
 14 40  1  0
 14 41  1  0
 15 42  1  0
 15 43  1  0
 18 44  1  0
 20 45  1  0
 21 46  1  0
 23 47  1  0
 26 48  1  0
 28 49  1  0
 29 50  1  0
M  END

