347828926
     RDKit          3D

 63 65  0  0  1  0  0  0  0  0999 V2000
    7.1308    0.5009   -2.5131 C   0  0  0  0  0  0  0  0  0  0  0  0
    5.7102    1.0817   -2.5437 C   0  0  0  0  0  0  0  0  0  0  0  0
    5.7283    2.2474   -1.8110 O   0  0  0  0  0  0  0  0  0  0  0  0
    4.4850    2.8468   -1.7833 C   0  0  0  0  0  0  0  0  0  0  0  0
    3.5198    1.9319   -1.1318 C   0  0  0  0  0  0  0  0  0  0  0  0
    2.1713    1.9775   -1.5108 C   0  0  0  0  0  0  0  0  0  0  0  0
    1.2646    1.1249   -0.8856 C   0  0  0  0  0  0  0  0  0  0  0  0
    1.6597    0.2425    0.0914 C   0  0  0  0  0  0  0  0  0  0  0  0
    2.9780    0.1865    0.4732 C   0  0  0  0  0  0  0  0  0  0  0  0
    3.9034    1.0395   -0.1476 C   0  0  0  0  0  0  0  0  0  0  0  0
    3.3541   -0.7121    1.4612 O   0  0  0  0  0  0  0  0  0  0  0  0
    4.7190   -0.7424    1.8287 C   0  0  0  0  0  0  0  0  0  0  0  0
    0.6777   -0.6193    0.7084 C   0  0  0  0  0  0  0  0  0  0  0  0
   -0.1370   -0.1006    1.7153 C   0  0  0  0  0  0  0  0  0  0  0  0
   -1.0949   -0.8302    2.3620 C   0  0  0  0  0  0  0  0  0  0  0  0
   -1.2922   -2.1729    2.0173 C   0  0  0  0  0  0  0  0  0  0  0  0
   -0.4875   -2.6842    1.0235 C   0  0  0  0  0  0  0  0  0  0  0  0
    0.4767   -1.9394    0.3766 C   0  0  0  0  0  0  0  0  0  0  0  0
   -2.3277   -2.9907    2.7064 C   0  0  0  0  0  0  0  0  0  0  0  0
   -3.6165   -2.8712    1.9547 C   0  0  1  0  0  0  0  0  0  0  0  0
   -4.7017   -3.6520    2.5734 C   0  0  0  0  0  0  0  0  0  0  0  0
   -5.7959   -3.1133    2.8116 O   0  0  0  0  0  0  0  0  0  0  0  0
   -4.5015   -4.9722    2.8855 O   0  0  0  0  0  0  0  0  0  0  0  0
   -4.0102   -1.4949    1.6974 N   0  0  0  0  0  0  0  0  0  0  0  0
   -4.1448   -1.0202    0.3693 C   0  0  0  0  0  0  0  0  0  0  0  0
   -3.9074   -1.8488   -0.5927 O   0  0  0  0  0  0  0  0  0  0  0  0
   -4.5267    0.3169   -0.0308 C   0  0  0  0  0  0  0  0  0  0  0  0
   -4.7915    1.3648    0.8164 C   0  0  0  0  0  0  0  0  0  0  0  0
   -5.1618    2.6349    0.3522 C   0  0  0  0  0  0  0  0  0  0  0  0
   -5.2769    2.8888   -0.9927 C   0  0  0  0  0  0  0  0  0  0  0  0
   -5.0177    1.8590   -1.8562 C   0  0  0  0  0  0  0  0  0  0  0  0
   -4.6540    0.6120   -1.3933 C   0  0  0  0  0  0  0  0  0  0  0  0
   -4.4108   -0.3680   -2.2927 F   0  0  0  0  0  0  0  0  0  0  0  0
   -4.6941    1.1844    2.1510 F   0  0  0  0  0  0  0  0  0  0  0  0
   -0.0753    1.1386   -1.2308 O   0  0  0  0  0  0  0  0  0  0  0  0
   -0.4969    2.0410   -2.2335 C   0  0  0  0  0  0  0  0  0  0  0  0
    7.2790   -0.1155   -3.4205 H   0  0  0  0  0  0  0  0  0  0  0  0
    7.2227   -0.1461   -1.6267 H   0  0  0  0  0  0  0  0  0  0  0  0
    7.8300    1.3708   -2.4694 H   0  0  0  0  0  0  0  0  0  0  0  0
    5.5116    1.2800   -3.6213 H   0  0  0  0  0  0  0  0  0  0  0  0
    5.0691    0.2902   -2.1375 H   0  0  0  0  0  0  0  0  0  0  0  0
    4.0941    3.0523   -2.8065 H   0  0  0  0  0  0  0  0  0  0  0  0
    4.4967    3.8082   -1.2161 H   0  0  0  0  0  0  0  0  0  0  0  0
    1.8502    2.6668   -2.2779 H   0  0  0  0  0  0  0  0  0  0  0  0
    4.9333    0.9779    0.1687 H   0  0  0  0  0  0  0  0  0  0  0  0
    5.0596    0.1389    2.3763 H   0  0  0  0  0  0  0  0  0  0  0  0
    5.3557   -0.8765    0.9152 H   0  0  0  0  0  0  0  0  0  0  0  0
    4.9223   -1.6613    2.4428 H   0  0  0  0  0  0  0  0  0  0  0  0
   -0.0136    0.9508    2.0150 H   0  0  0  0  0  0  0  0  0  0  0  0
   -1.7349   -0.4478    3.1420 H   0  0  0  0  0  0  0  0  0  0  0  0
   -0.6225   -3.7302    0.7370 H   0  0  0  0  0  0  0  0  0  0  0  0
    1.1072   -2.3451   -0.4044 H   0  0  0  0  0  0  0  0  0  0  0  0
   -2.4165   -2.7315    3.7768 H   0  0  0  0  0  0  0  0  0  0  0  0
   -1.9978   -4.0599    2.6075 H   0  0  0  0  0  0  0  0  0  0  0  0
   -3.4425   -3.3581    0.9499 H   0  0  0  0  0  0  0  0  0  0  0  0
   -5.1808   -5.5799    3.3096 H   0  0  0  0  0  0  0  0  0  0  0  0
   -4.1940   -0.8580    2.4852 H   0  0  0  0  0  0  0  0  0  0  0  0
   -5.3665    3.4452    1.0377 H   0  0  0  0  0  0  0  0  0  0  0  0
   -5.5607    3.8576   -1.3787 H   0  0  0  0  0  0  0  0  0  0  0  0
   -5.1114    2.0730   -2.9198 H   0  0  0  0  0  0  0  0  0  0  0  0
    0.1197    1.9254   -3.1447 H   0  0  0  0  0  0  0  0  0  0  0  0
   -0.3125    3.1010   -1.8952 H   0  0  0  0  0  0  0  0  0  0  0  0
   -1.5532    1.8839   -2.5303 H   0  0  0  0  0  0  0  0  0  0  0  0
  1  2  1  0
  2  3  1  0
  3  4  1  0
  4  5  1  0
  5  6  2  0
  6  7  1  0
  7  8  2  0
  8  9  1  0
  9 10  2  0
  5 10  1  0
  9 11  1  0
 11 12  1  0
  8 13  1  0
 13 14  2  0
 14 15  1  0
 15 16  2  0
 16 17  1  0
 17 18  2  0
 13 18  1  0
 16 19  1  0
 19 20  1  0
 20 21  1  0
 21 22  2  0
 21 23  1  0
 20 24  1  0
 24 25  1  0
 25 26  2  0
 25 27  1  0
 27 28  2  0
 28 29  1  0
 29 30  2  0
 30 31  1  0
 31 32  2  0
 27 32  1  0
 32 33  1  0
 28 34  1  0
  7 35  1  0
 35 36  1  0
  1 37  1  0
  1 38  1  0
  1 39  1  0
  2 40  1  0
  2 41  1  0
  4 42  1  0
  4 43  1  0
  6 44  1  0
 10 45  1  0
 12 46  1  0
 12 47  1  0
 12 48  1  0
 14 49  1  0
 15 50  1  0
 17 51  1  0
 18 52  1  0
 19 53  1  0
 19 54  1  0
 20 55  1  6
 23 56  1  0
 24 57  1  0
 29 58  1  0
 30 59  1  0
 31 60  1  0
 36 61  1  0
 36 62  1  0
 36 63  1  0
M  END

