347828320
     RDKit          3D

 69 73  0  0  0  0  0  0  0  0999 V2000
    9.1815    1.8443    1.4864 C   0  0  0  0  0  0  0  0  0  0  0  0
    8.8137    0.7622    0.5215 C   0  0  0  0  0  0  0  0  0  0  0  0
    7.5188    0.2011    0.7095 N   0  0  0  0  0  0  0  0  0  0  0  0
    7.3715   -0.5666    1.9251 C   0  0  0  0  0  0  0  0  0  0  0  0
    5.9233   -0.6896    2.3429 C   0  0  0  0  0  0  0  0  0  0  0  0
    5.0459   -0.7767    1.1865 N   0  0  0  0  0  0  0  0  0  0  0  0
    5.1108    0.4334    0.3877 C   0  0  0  0  0  0  0  0  0  0  0  0
    6.4347    1.1308    0.5062 C   0  0  0  0  0  0  0  0  0  0  0  0
    3.6851   -1.0617    1.6074 C   0  0  0  0  0  0  0  0  0  0  0  0
    2.8527   -1.1697    0.3731 C   0  0  0  0  0  0  0  0  0  0  0  0
    3.3891   -1.7518   -0.7767 C   0  0  0  0  0  0  0  0  0  0  0  0
    2.6293   -1.8521   -1.9147 C   0  0  0  0  0  0  0  0  0  0  0  0
    1.3233   -1.3886   -1.9683 C   0  0  0  0  0  0  0  0  0  0  0  0
    0.8307   -0.8340   -0.8522 N   0  0  0  0  0  0  0  0  0  0  0  0
    1.5559   -0.7171    0.2971 C   0  0  0  0  0  0  0  0  0  0  0  0
    0.5636   -1.5087   -3.1684 N   0  0  0  0  0  0  0  0  0  0  0  0
   -0.7643   -1.0500   -3.2550 C   0  0  0  0  0  0  0  0  0  0  0  0
   -1.4376   -1.1797   -4.3934 N   0  0  0  0  0  0  0  0  0  0  0  0
   -2.6888   -0.7549   -4.4947 C   0  0  0  0  0  0  0  0  0  0  0  0
   -3.2764   -0.1707   -3.3790 C   0  0  0  0  0  0  0  0  0  0  0  0
   -2.5847   -0.0318   -2.1923 C   0  0  0  0  0  0  0  0  0  0  0  0
   -1.3188   -0.4850   -2.1606 N   0  0  0  0  0  0  0  0  0  0  0  0
   -3.2483    0.5871   -1.0524 C   0  0  0  0  0  0  0  0  0  0  0  0
   -4.5512    0.1813   -0.7727 C   0  0  0  0  0  0  0  0  0  0  0  0
   -5.2209    0.7285    0.2820 C   0  0  0  0  0  0  0  0  0  0  0  0
   -4.6203    1.6732    1.0666 C   0  0  0  0  0  0  0  0  0  0  0  0
   -3.3355    2.0679    0.7844 C   0  0  0  0  0  0  0  0  0  0  0  0
   -2.6338    1.5380   -0.2686 C   0  0  0  0  0  0  0  0  0  0  0  0
   -2.7755    3.0016    1.5807 F   0  0  0  0  0  0  0  0  0  0  0  0
   -5.5332    2.0010    1.9989 N   0  0  0  0  0  0  0  0  0  0  0  0
   -6.6638    1.2676    1.7808 C   0  0  0  0  0  0  0  0  0  0  0  0
   -6.4809    0.4723    0.7150 N   0  0  0  0  0  0  0  0  0  0  0  0
   -7.4150   -0.4631    0.1377 C   0  0  0  0  0  0  0  0  0  0  0  0
   -7.4279   -1.7797    0.9107 C   0  0  0  0  0  0  0  0  0  0  0  0
   -8.8019    0.0752   -0.0064 C   0  0  0  0  0  0  0  0  0  0  0  0
   -7.8886    1.3585    2.6117 C   0  0  0  0  0  0  0  0  0  0  0  0
   -4.5362    0.2613   -3.4716 F   0  0  0  0  0  0  0  0  0  0  0  0
    8.4632    2.6857    1.4918 H   0  0  0  0  0  0  0  0  0  0  0  0
   10.1503    2.2886    1.1144 H   0  0  0  0  0  0  0  0  0  0  0  0
    9.4135    1.4610    2.5037 H   0  0  0  0  0  0  0  0  0  0  0  0
    9.5623   -0.0544    0.6252 H   0  0  0  0  0  0  0  0  0  0  0  0
    8.8466    1.1987   -0.4998 H   0  0  0  0  0  0  0  0  0  0  0  0
    7.9291   -0.1037    2.7399 H   0  0  0  0  0  0  0  0  0  0  0  0
    7.7665   -1.5927    1.7658 H   0  0  0  0  0  0  0  0  0  0  0  0
    5.8208   -1.6431    2.8993 H   0  0  0  0  0  0  0  0  0  0  0  0
    5.5746    0.1218    2.9804 H   0  0  0  0  0  0  0  0  0  0  0  0
    4.3235    1.1099    0.7904 H   0  0  0  0  0  0  0  0  0  0  0  0
    4.8301    0.2422   -0.6662 H   0  0  0  0  0  0  0  0  0  0  0  0
    6.6305    1.6369   -0.4697 H   0  0  0  0  0  0  0  0  0  0  0  0
    6.3697    1.9079    1.2649 H   0  0  0  0  0  0  0  0  0  0  0  0
    3.6448   -2.0226    2.1263 H   0  0  0  0  0  0  0  0  0  0  0  0
    3.3194   -0.2098    2.2221 H   0  0  0  0  0  0  0  0  0  0  0  0
    4.4013   -2.1067   -0.7144 H   0  0  0  0  0  0  0  0  0  0  0  0
    3.0618   -2.3127   -2.8150 H   0  0  0  0  0  0  0  0  0  0  0  0
    1.1237   -0.2669    1.1690 H   0  0  0  0  0  0  0  0  0  0  0  0
    1.0307   -1.9577   -4.0029 H   0  0  0  0  0  0  0  0  0  0  0  0
   -3.2516   -0.8552   -5.4217 H   0  0  0  0  0  0  0  0  0  0  0  0
   -5.0245   -0.5632   -1.3905 H   0  0  0  0  0  0  0  0  0  0  0  0
   -1.6285    1.8434   -0.4939 H   0  0  0  0  0  0  0  0  0  0  0  0
   -7.0430   -0.7233   -0.8916 H   0  0  0  0  0  0  0  0  0  0  0  0
   -8.1405   -1.7604    1.7549 H   0  0  0  0  0  0  0  0  0  0  0  0
   -7.6724   -2.5880    0.1998 H   0  0  0  0  0  0  0  0  0  0  0  0
   -6.3888   -1.9488    1.2446 H   0  0  0  0  0  0  0  0  0  0  0  0
   -9.1721   -0.0110   -1.0682 H   0  0  0  0  0  0  0  0  0  0  0  0
   -8.8383    1.1576    0.2409 H   0  0  0  0  0  0  0  0  0  0  0  0
   -9.4916   -0.5334    0.5969 H   0  0  0  0  0  0  0  0  0  0  0  0
   -8.4891    2.2687    2.3366 H   0  0  0  0  0  0  0  0  0  0  0  0
   -8.5226    0.4739    2.5464 H   0  0  0  0  0  0  0  0  0  0  0  0
   -7.6254    1.5035    3.7005 H   0  0  0  0  0  0  0  0  0  0  0  0
  1  2  1  0
  2  3  1  0
  3  4  1  0
  4  5  1  0
  5  6  1  0
  6  7  1  0
  7  8  1  0
  3  8  1  0
  6  9  1  0
  9 10  1  0
 10 11  2  0
 11 12  1  0
 12 13  2  0
 13 14  1  0
 14 15  2  0
 10 15  1  0
 13 16  1  0
 16 17  1  0
 17 18  2  0
 18 19  1  0
 19 20  2  0
 20 21  1  0
 21 22  2  0
 17 22  1  0
 21 23  1  0
 23 24  2  0
 24 25  1  0
 25 26  2  0
 26 27  1  0
 27 28  2  0
 23 28  1  0
 27 29  1  0
 26 30  1  0
 30 31  2  0
 31 32  1  0
 25 32  1  0
 32 33  1  0
 33 34  1  0
 33 35  1  0
 31 36  1  0
 20 37  1  0
  1 38  1  0
  1 39  1  0
  1 40  1  0
  2 41  1  0
  2 42  1  0
  4 43  1  0
  4 44  1  0
  5 45  1  0
  5 46  1  0
  7 47  1  0
  7 48  1  0
  8 49  1  0
  8 50  1  0
  9 51  1  0
  9 52  1  0
 11 53  1  0
 12 54  1  0
 15 55  1  0
 16 56  1  0
 19 57  1  0
 24 58  1  0
 28 59  1  0
 33 60  1  0
 34 61  1  0
 34 62  1  0
 34 63  1  0
 35 64  1  0
 35 65  1  0
 35 66  1  0
 36 67  1  0
 36 68  1  0
 36 69  1  0
M  END

