347827806
     RDKit          3D

 61 65  0  0  0  0  0  0  0  0999 V2000
   -6.3809   -0.9678   -0.8336 C   0  0  0  0  0  0  0  0  0  0  0  0
   -5.3942   -0.1094   -0.3486 C   0  0  0  0  0  0  0  0  0  0  0  0
   -4.0611   -0.4539   -0.3938 C   0  0  0  0  0  0  0  0  0  0  0  0
   -3.7367   -1.6713   -0.9331 C   0  0  0  0  0  0  0  0  0  0  0  0
   -4.7325   -2.5316   -1.4201 C   0  0  0  0  0  0  0  0  0  0  0  0
   -6.0261   -2.1548   -1.3561 N   0  0  0  0  0  0  0  0  0  0  0  0
   -7.7132   -0.5748   -0.7623 C   0  0  0  0  0  0  0  0  0  0  0  0
   -8.1149    0.6344   -0.2304 C   0  0  0  0  0  0  0  0  0  0  0  0
   -7.1218    1.4846    0.2509 C   0  0  0  0  0  0  0  0  0  0  0  0
   -5.8044    1.0884    0.1767 C   0  0  0  0  0  0  0  0  0  0  0  0
   -9.4483    1.0164   -0.1638 O   0  0  0  0  0  0  0  0  0  0  0  0
  -10.4134    0.1191   -0.6633 C   0  0  0  0  0  0  0  0  0  0  0  0
   -7.5347    2.6894    0.7793 O   0  0  0  0  0  0  0  0  0  0  0  0
   -6.7222    3.6885    1.3135 C   0  0  0  0  0  0  0  0  0  0  0  0
   -3.1420    0.4320    0.1010 O   0  0  0  0  0  0  0  0  0  0  0  0
   -1.7686    0.2558    0.1524 C   0  0  0  0  0  0  0  0  0  0  0  0
   -0.9450    0.7033   -0.8775 C   0  0  0  0  0  0  0  0  0  0  0  0
    0.4153    0.5263   -0.8194 C   0  0  0  0  0  0  0  0  0  0  0  0
    1.0465   -0.1047    0.2625 C   0  0  0  0  0  0  0  0  0  0  0  0
    0.2388   -0.5412    1.2689 C   0  0  0  0  0  0  0  0  0  0  0  0
   -1.1512   -0.3622    1.2119 C   0  0  0  0  0  0  0  0  0  0  0  0
    2.4815   -0.2097    0.2571 N   0  0  0  0  0  0  0  0  0  0  0  0
    3.1602   -1.1776    0.9569 C   0  0  0  0  0  0  0  0  0  0  0  0
    4.6339   -1.3194    1.0059 C   0  0  0  0  0  0  0  0  0  0  0  0
    2.4667   -2.0458    1.6345 O   0  0  0  0  0  0  0  0  0  0  0  0
    5.5286   -0.3372    0.3509 C   0  0  0  0  0  0  0  0  0  0  0  0
    6.9141   -0.6522    0.2684 N   0  0  0  0  0  0  0  0  0  0  0  0
    5.1074    0.7329   -0.1158 O   0  0  0  0  0  0  0  0  0  0  0  0
    7.9045    0.1585   -0.3107 C   0  0  0  0  0  0  0  0  0  0  0  0
    9.1748   -0.3879   -0.5464 C   0  0  0  0  0  0  0  0  0  0  0  0
   10.2104    0.3183   -1.0858 C   0  0  0  0  0  0  0  0  0  0  0  0
   10.0079    1.6504   -1.4240 C   0  0  0  0  0  0  0  0  0  0  0  0
    8.7793    2.2150   -1.2070 C   0  0  0  0  0  0  0  0  0  0  0  0
    7.7252    1.4642   -0.6478 C   0  0  0  0  0  0  0  0  0  0  0  0
   11.0309    2.3811   -1.9666 F   0  0  0  0  0  0  0  0  0  0  0  0
    5.0521   -2.7987    0.8702 C   0  0  0  0  0  0  0  0  0  0  0  0
    5.2064   -2.0595    2.1938 C   0  0  0  0  0  0  0  0  0  0  0  0
   -2.6960   -1.9546   -0.9758 H   0  0  0  0  0  0  0  0  0  0  0  0
   -4.4218   -3.4661   -1.8290 H   0  0  0  0  0  0  0  0  0  0  0  0
   -8.4813   -1.2597   -1.1472 H   0  0  0  0  0  0  0  0  0  0  0  0
   -5.0242    1.7629    0.5578 H   0  0  0  0  0  0  0  0  0  0  0  0
  -11.4192    0.6140   -0.7523 H   0  0  0  0  0  0  0  0  0  0  0  0
  -10.1732   -0.2417   -1.6862 H   0  0  0  0  0  0  0  0  0  0  0  0
  -10.5407   -0.7819   -0.0245 H   0  0  0  0  0  0  0  0  0  0  0  0
   -5.6816    3.6923    0.9545 H   0  0  0  0  0  0  0  0  0  0  0  0
   -7.2421    4.6719    1.1226 H   0  0  0  0  0  0  0  0  0  0  0  0
   -6.6853    3.5460    2.4297 H   0  0  0  0  0  0  0  0  0  0  0  0
   -1.4469    1.1870   -1.7050 H   0  0  0  0  0  0  0  0  0  0  0  0
    1.0519    0.8818   -1.6325 H   0  0  0  0  0  0  0  0  0  0  0  0
    0.6403   -1.0207    2.1433 H   0  0  0  0  0  0  0  0  0  0  0  0
   -1.7449   -0.7260    2.0338 H   0  0  0  0  0  0  0  0  0  0  0  0
    3.0171    0.4994   -0.3275 H   0  0  0  0  0  0  0  0  0  0  0  0
    7.2092   -1.5786    0.6955 H   0  0  0  0  0  0  0  0  0  0  0  0
    9.3219   -1.4364   -0.2772 H   0  0  0  0  0  0  0  0  0  0  0  0
   11.1905   -0.1204   -1.2625 H   0  0  0  0  0  0  0  0  0  0  0  0
    8.5941    3.2567   -1.4634 H   0  0  0  0  0  0  0  0  0  0  0  0
    6.7922    2.0000   -0.5044 H   0  0  0  0  0  0  0  0  0  0  0  0
    5.8977   -2.9688    0.2121 H   0  0  0  0  0  0  0  0  0  0  0  0
    4.2357   -3.5644    0.8437 H   0  0  0  0  0  0  0  0  0  0  0  0
    4.4922   -2.3381    2.9979 H   0  0  0  0  0  0  0  0  0  0  0  0
    6.2412   -1.7539    2.4975 H   0  0  0  0  0  0  0  0  0  0  0  0
  1  2  2  0
  2  3  1  0
  3  4  2  0
  4  5  1  0
  5  6  2  0
  1  6  1  0
  1  7  1  0
  7  8  2  0
  8  9  1  0
  9 10  2  0
  2 10  1  0
  8 11  1  0
 11 12  1  0
  9 13  1  0
 13 14  1  0
  3 15  1  0
 15 16  1  0
 16 17  2  0
 17 18  1  0
 18 19  2  0
 19 20  1  0
 20 21  2  0
 16 21  1  0
 19 22  1  0
 22 23  1  0
 23 24  1  0
 23 25  2  0
 24 26  1  0
 26 27  1  0
 26 28  2  0
 27 29  1  0
 29 30  2  0
 30 31  1  0
 31 32  2  0
 32 33  1  0
 33 34  2  0
 29 34  1  0
 32 35  1  0
 36 37  1  0
 24 37  1  0
 24 36  1  0
  4 38  1  0
  5 39  1  0
  7 40  1  0
 10 41  1  0
 12 42  1  0
 12 43  1  0
 12 44  1  0
 14 45  1  0
 14 46  1  0
 14 47  1  0
 17 48  1  0
 18 49  1  0
 20 50  1  0
 21 51  1  0
 22 52  1  0
 27 53  1  0
 30 54  1  0
 31 55  1  0
 33 56  1  0
 34 57  1  0
 36 58  1  0
 36 59  1  0
 37 60  1  0
 37 61  1  0
M  END

