347829110
     RDKit          3D

 24 23  0  0  1  0  0  0  0  0999 V2000
    2.1439    0.6137   -0.6827 C   0  0  0  0  0  0  0  0  0  0  0  0
    1.5507   -0.5707    0.0783 C   0  0  1  0  0  0  0  0  0  0  0  0
    0.1996   -0.1946    0.6678 C   0  0  1  0  0  0  0  0  0  0  0  0
   -0.7632    0.0526   -0.4949 C   0  0  2  0  0  0  0  0  0  0  0  0
   -2.1542    0.2775    0.0859 C   0  0  1  0  0  0  0  0  0  0  0  0
   -2.1904    1.3930    1.0422 C   0  0  0  0  0  0  0  0  0  0  0  0
   -2.9395    2.3259    0.8378 O   0  0  0  0  0  0  0  0  0  0  0  0
   -3.0391    0.4918   -0.9566 O   0  0  0  0  0  0  0  0  0  0  0  0
   -0.8500   -1.0609   -1.3168 O   0  0  0  0  0  0  0  0  0  0  0  0
   -0.2759   -1.2688    1.3997 O   0  0  0  0  0  0  0  0  0  0  0  0
    1.4314   -1.6664   -0.7445 O   0  0  0  0  0  0  0  0  0  0  0  0
    3.3969    0.1977   -1.1292 O   0  0  0  0  0  0  0  0  0  0  0  0
    1.5387    0.8348   -1.5605 H   0  0  0  0  0  0  0  0  0  0  0  0
    2.2994    1.4685    0.0045 H   0  0  0  0  0  0  0  0  0  0  0  0
    2.2538   -0.8077    0.8887 H   0  0  0  0  0  0  0  0  0  0  0  0
    0.2742    0.7206    1.2686 H   0  0  0  0  0  0  0  0  0  0  0  0
   -0.4964    0.9612   -1.0522 H   0  0  0  0  0  0  0  0  0  0  0  0
   -2.4385   -0.6712    0.5838 H   0  0  0  0  0  0  0  0  0  0  0  0
   -1.5552    1.3863    1.9235 H   0  0  0  0  0  0  0  0  0  0  0  0
   -2.7946   -0.0197   -1.7677 H   0  0  0  0  0  0  0  0  0  0  0  0
   -1.3399   -1.7675   -0.7991 H   0  0  0  0  0  0  0  0  0  0  0  0
   -0.0053   -2.1122    0.9792 H   0  0  0  0  0  0  0  0  0  0  0  0
    1.6909   -1.4877   -1.6861 H   0  0  0  0  0  0  0  0  0  0  0  0
    4.0626    0.9037   -1.0855 H   0  0  0  0  0  0  0  0  0  0  0  0
  1  2  1  0
  2  3  1  0
  3  4  1  0
  4  5  1  0
  5  6  1  0
  6  7  2  0
  5  8  1  0
  4  9  1  0
  3 10  1  0
  2 11  1  0
  1 12  1  0
  1 13  1  0
  1 14  1  0
  2 15  1  1
  3 16  1  1
  4 17  1  6
  5 18  1  1
  6 19  1  0
  8 20  1  0
  9 21  1  0
 10 22  1  0
 11 23  1  0
 12 24  1  0
M  END

