347828836
     RDKit          3D

102103  0  0  0  0  0  0  0  0999 V2000
   15.1479    0.1396    0.3894 C   0  0  0  0  0  0  0  0  0  0  0  0
  -12.9325    2.7625    0.0316 C   0  0  0  0  0  0  0  0  0  0  0  0
   14.6920    0.0193   -1.0357 C   0  0  0  0  0  0  0  0  0  0  0  0
  -12.1589    2.0060   -1.0006 C   0  0  0  0  0  0  0  0  0  0  0  0
   13.1373    0.1094   -1.0456 C   0  0  0  0  0  0  0  0  0  0  0  0
  -12.8538    0.7769   -1.5142 C   0  0  0  0  0  0  0  0  0  0  0  0
   12.8259    1.4330   -0.4641 C   0  0  0  0  0  0  0  0  0  0  0  0
  -13.1556   -0.2307   -0.4626 C   0  0  0  0  0  0  0  0  0  0  0  0
   11.4275    1.8458   -0.4114 C   0  0  0  0  0  0  0  0  0  0  0  0
  -11.9288   -0.7524    0.2699 C   0  0  0  0  0  0  0  0  0  0  0  0
    0.5634   -1.3696   -1.4353 C   0  0  0  0  0  0  0  0  0  0  0  0
   -0.2130   -0.0832   -1.2412 C   0  0  0  0  0  0  0  0  0  0  0  0
    0.9137   -2.0145   -0.1201 C   0  0  0  0  0  0  0  0  0  0  0  0
   -1.5129   -0.3803   -0.4754 C   0  0  0  0  0  0  0  0  0  0  0  0
   10.3932    1.1472    0.3541 C   0  0  0  0  0  0  0  0  0  0  0  0
  -10.9478   -1.4217   -0.6600 C   0  0  0  0  0  0  0  0  0  0  0  0
    1.7494   -1.1226    0.7587 C   0  0  0  0  0  0  0  0  0  0  0  0
   -2.2852    0.9052   -0.2770 C   0  0  0  0  0  0  0  0  0  0  0  0
   10.0489   -0.2469   -0.0049 C   0  0  0  0  0  0  0  0  0  0  0  0
   -9.7719   -1.9264    0.1081 C   0  0  0  0  0  0  0  0  0  0  0  0
    2.0405   -1.8429    2.0524 C   0  0  0  0  0  0  0  0  0  0  0  0
   -2.6783    1.5563   -1.5602 C   0  0  0  0  0  0  0  0  0  0  0  0
    6.4010   -1.2518    1.9979 C   0  0  0  0  0  0  0  0  0  0  0  0
    5.4902    0.6889    1.0451 C   0  0  0  0  0  0  0  0  0  0  0  0
   -6.3594   -0.7280   -0.3794 C   0  0  0  0  0  0  0  0  0  0  0  0
   -7.0628    1.3084   -1.3198 C   0  0  0  0  0  0  0  0  0  0  0  0
    8.8707   -0.7286    0.9002 C   0  0  0  0  0  0  0  0  0  0  0  0
   -9.0291   -0.8444    0.8266 C   0  0  0  0  0  0  0  0  0  0  0  0
    2.8609   -1.0075    2.9829 C   0  0  0  0  0  0  0  0  0  0  0  0
   -3.5964    0.7512   -2.4167 C   0  0  0  0  0  0  0  0  0  0  0  0
    5.1684   -1.5067    2.5574 C   0  0  0  0  0  0  0  0  0  0  0  0
    4.2691    0.3993    1.6232 C   0  0  0  0  0  0  0  0  0  0  0  0
   -5.1090   -0.5840   -0.9917 C   0  0  0  0  0  0  0  0  0  0  0  0
   -5.8314    1.4392   -1.9162 C   0  0  0  0  0  0  0  0  0  0  0  0
    6.5871   -0.1293    1.2180 C   0  0  0  0  0  0  0  0  0  0  0  0
   -7.3575    0.2124   -0.5306 C   0  0  0  0  0  0  0  0  0  0  0  0
    7.7377    0.1399    0.6897 N   0  0  0  0  0  0  0  0  0  0  0  0
   -8.5141    0.1719   -0.0145 N   0  0  0  0  0  0  0  0  0  0  0  0
    4.1118   -0.6883    2.3718 N   0  0  0  0  0  0  0  0  0  0  0  0
   -4.8566    0.4891   -1.7484 N   0  0  0  0  0  0  0  0  0  0  0  0
   14.4010   -0.2182    1.1214 H   0  0  0  0  0  0  0  0  0  0  0  0
   16.1352   -0.3881    0.5442 H   0  0  0  0  0  0  0  0  0  0  0  0
   15.3460    1.2108    0.6751 H   0  0  0  0  0  0  0  0  0  0  0  0
  -12.8496    2.2781    1.0446 H   0  0  0  0  0  0  0  0  0  0  0  0
  -13.9559    3.0137   -0.2418 H   0  0  0  0  0  0  0  0  0  0  0  0
  -12.3861    3.7430    0.1682 H   0  0  0  0  0  0  0  0  0  0  0  0
   15.0230   -0.9222   -1.4910 H   0  0  0  0  0  0  0  0  0  0  0  0
   15.0321    0.9146   -1.5788 H   0  0  0  0  0  0  0  0  0  0  0  0
  -11.1652    1.7682   -0.5690 H   0  0  0  0  0  0  0  0  0  0  0  0
  -11.9475    2.6585   -1.8817 H   0  0  0  0  0  0  0  0  0  0  0  0
   12.8219   -0.0176   -2.0926 H   0  0  0  0  0  0  0  0  0  0  0  0
   12.8085   -0.7375   -0.4284 H   0  0  0  0  0  0  0  0  0  0  0  0
  -13.8066    1.0151   -2.0281 H   0  0  0  0  0  0  0  0  0  0  0  0
  -12.2109    0.3118   -2.2851 H   0  0  0  0  0  0  0  0  0  0  0  0
   13.3939    2.2252   -1.0639 H   0  0  0  0  0  0  0  0  0  0  0  0
   13.3221    1.4897    0.5762 H   0  0  0  0  0  0  0  0  0  0  0  0
  -13.9482    0.0733    0.2423 H   0  0  0  0  0  0  0  0  0  0  0  0
  -13.5768   -1.1347   -0.9934 H   0  0  0  0  0  0  0  0  0  0  0  0
   11.4204    2.9609   -0.0715 H   0  0  0  0  0  0  0  0  0  0  0  0
   11.0984    1.9312   -1.5297 H   0  0  0  0  0  0  0  0  0  0  0  0
  -11.3887    0.0763    0.7780 H   0  0  0  0  0  0  0  0  0  0  0  0
  -12.2836   -1.5294    0.9746 H   0  0  0  0  0  0  0  0  0  0  0  0
    1.4502   -1.2064   -2.0743 H   0  0  0  0  0  0  0  0  0  0  0  0
   -0.1025   -2.0683   -1.9813 H   0  0  0  0  0  0  0  0  0  0  0  0
    0.3175    0.6815   -0.6769 H   0  0  0  0  0  0  0  0  0  0  0  0
   -0.4616    0.2988   -2.2578 H   0  0  0  0  0  0  0  0  0  0  0  0
    1.4738   -2.9565   -0.3800 H   0  0  0  0  0  0  0  0  0  0  0  0
   -0.0030   -2.3613    0.3934 H   0  0  0  0  0  0  0  0  0  0  0  0
   -1.2034   -0.7300    0.5282 H   0  0  0  0  0  0  0  0  0  0  0  0
   -2.0446   -1.1543   -1.0282 H   0  0  0  0  0  0  0  0  0  0  0  0
    9.4475    1.7842    0.3055 H   0  0  0  0  0  0  0  0  0  0  0  0
   10.7148    1.1288    1.4531 H   0  0  0  0  0  0  0  0  0  0  0  0
  -11.4239   -2.2709   -1.2094 H   0  0  0  0  0  0  0  0  0  0  0  0
  -10.6584   -0.6413   -1.4138 H   0  0  0  0  0  0  0  0  0  0  0  0
    1.3268   -0.1286    0.8991 H   0  0  0  0  0  0  0  0  0  0  0  0
    2.7328   -0.9882    0.2361 H   0  0  0  0  0  0  0  0  0  0  0  0
   -1.6058    1.6340    0.2522 H   0  0  0  0  0  0  0  0  0  0  0  0
   -3.1535    0.7883    0.3693 H   0  0  0  0  0  0  0  0  0  0  0  0
    9.6904   -0.3263   -1.0375 H   0  0  0  0  0  0  0  0  0  0  0  0
   10.8446   -0.9555    0.2421 H   0  0  0  0  0  0  0  0  0  0  0  0
  -10.1750   -2.6590    0.8675 H   0  0  0  0  0  0  0  0  0  0  0  0
   -9.1526   -2.5224   -0.5632 H   0  0  0  0  0  0  0  0  0  0  0  0
    1.1359   -2.2425    2.5366 H   0  0  0  0  0  0  0  0  0  0  0  0
    2.6698   -2.7387    1.7854 H   0  0  0  0  0  0  0  0  0  0  0  0
   -3.2055    2.5040   -1.2970 H   0  0  0  0  0  0  0  0  0  0  0  0
   -1.7962    1.8509   -2.1667 H   0  0  0  0  0  0  0  0  0  0  0  0
    7.2537   -1.9218    2.1536 H   0  0  0  0  0  0  0  0  0  0  0  0
    5.6135    1.5694    0.4399 H   0  0  0  0  0  0  0  0  0  0  0  0
   -6.5517   -1.6028    0.2300 H   0  0  0  0  0  0  0  0  0  0  0  0
   -7.7973    2.0795   -1.4794 H   0  0  0  0  0  0  0  0  0  0  0  0
    9.2466   -0.6525    1.9277 H   0  0  0  0  0  0  0  0  0  0  0  0
    8.6568   -1.7650    0.6350 H   0  0  0  0  0  0  0  0  0  0  0  0
   -8.1695   -1.3339    1.3718 H   0  0  0  0  0  0  0  0  0  0  0  0
   -9.6400   -0.3759    1.6333 H   0  0  0  0  0  0  0  0  0  0  0  0
    3.0589   -1.6213    3.8960 H   0  0  0  0  0  0  0  0  0  0  0  0
    2.3147   -0.0913    3.2840 H   0  0  0  0  0  0  0  0  0  0  0  0
   -3.1219   -0.1902   -2.7795 H   0  0  0  0  0  0  0  0  0  0  0  0
   -3.7894    1.3526   -3.3413 H   0  0  0  0  0  0  0  0  0  0  0  0
    5.0661   -2.3964    3.1612 H   0  0  0  0  0  0  0  0  0  0  0  0
    3.4559    1.0974    1.4372 H   0  0  0  0  0  0  0  0  0  0  0  0
   -4.3640   -1.3413   -0.8497 H   0  0  0  0  0  0  0  0  0  0  0  0
   -5.6152    2.3086   -2.5351 H   0  0  0  0  0  0  0  0  0  0  0  0
  1  3  1  0
  2  4  1  0
  3  5  1  0
  4  6  1  0
  5  7  1  0
  6  8  1  0
  7  9  1  0
  8 10  1  0
 11 12  1  0
 11 13  1  0
 12 14  1  0
  9 15  1  0
 10 16  1  0
 13 17  1  0
 14 18  1  0
 15 19  1  0
 16 20  1  0
 17 21  1  0
 18 22  1  0
 19 27  1  0
 20 28  1  0
 21 29  1  0
 22 30  1  0
 23 31  2  0
 24 32  2  0
 25 33  2  0
 26 34  2  0
 23 35  1  0
 24 35  1  0
 25 36  1  0
 26 36  1  0
 27 37  1  0
 35 37  2  3
 28 38  1  0
 36 38  2  3
 29 39  1  0
 31 39  1  0
 32 39  1  0
 30 40  1  0
 33 40  1  0
 34 40  1  0
  1 41  1  0
  1 42  1  0
  1 43  1  0
  2 44  1  0
  2 45  1  0
  2 46  1  0
  3 47  1  0
  3 48  1  0
  4 49  1  0
  4 50  1  0
  5 51  1  0
  5 52  1  0
  6 53  1  0
  6 54  1  0
  7 55  1  0
  7 56  1  0
  8 57  1  0
  8 58  1  0
  9 59  1  0
  9 60  1  0
 10 61  1  0
 10 62  1  0
 11 63  1  0
 11 64  1  0
 12 65  1  0
 12 66  1  0
 13 67  1  0
 13 68  1  0
 14 69  1  0
 14 70  1  0
 15 71  1  0
 15 72  1  0
 16 73  1  0
 16 74  1  0
 17 75  1  0
 17 76  1  0
 18 77  1  0
 18 78  1  0
 19 79  1  0
 19 80  1  0
 20 81  1  0
 20 82  1  0
 21 83  1  0
 21 84  1  0
 22 85  1  0
 22 86  1  0
 23 87  1  0
 24 88  1  0
 25 89  1  0
 26 90  1  0
 27 91  1  0
 27 92  1  0
 28 93  1  0
 28 94  1  0
 29 95  1  0
 29 96  1  0
 30 97  1  0
 30 98  1  0
 31 99  1  0
 32100  1  0
 33101  1  0
 34102  1  0
M  END

