347829275
     RDKit          3D

 46 49  0  0  1  0  0  0  0  0999 V2000
    4.3707    0.8627    0.8966 C   0  0  0  0  0  0  0  0  0  0  0  0
    4.7132    0.7025   -0.5351 C   0  0  0  0  0  0  0  0  0  0  0  0
    3.9067   -0.1836   -1.3628 C   0  0  0  0  0  0  0  0  0  0  0  0
    2.6164   -0.3082   -1.1041 C   0  0  0  0  0  0  0  0  0  0  0  0
    2.0812    0.4775    0.0279 C   0  0  2  0  0  0  0  0  0  0  0  0
    3.0251    0.2358    1.2122 C   0  0  0  0  0  0  0  0  0  0  0  0
    1.7923   -1.2118   -1.9472 C   0  0  0  0  0  0  0  0  0  0  0  0
    0.5205   -1.6101   -1.2360 C   0  0  0  0  0  0  0  0  0  0  0  0
   -0.1628   -0.3595   -0.7450 C   0  0  2  0  0  0  0  0  0  0  0  0
    0.6793    0.2168    0.3770 C   0  0  2  0  0  0  0  0  0  0  0  0
   -1.4555   -0.7264   -0.1279 C   0  0  1  0  0  0  0  0  0  0  0  0
   -2.2336    0.4526    0.4094 C   0  0  2  0  0  0  0  0  0  0  0  0
   -1.3939    1.0939    1.4764 C   0  0  0  0  0  0  0  0  0  0  0  0
   -0.0633    1.4717    0.8520 C   0  0  0  0  0  0  0  0  0  0  0  0
   -2.4419   -1.4223   -0.9650 C   0  0  0  0  0  0  0  0  0  0  0  0
   -3.7498   -1.2255   -0.2000 C   0  0  0  0  0  0  0  0  0  0  0  0
   -3.4308   -0.2889    0.9471 C   0  0  2  0  0  0  0  0  0  0  0  0
    5.6720    1.3129   -1.0224 O   0  0  0  0  0  0  0  0  0  0  0  0
   -2.6747    1.4110   -0.6321 C   0  0  0  0  0  0  0  0  0  0  0  0
   -4.4925    0.5459    1.2603 O   0  0  0  0  0  0  0  0  0  0  0  0
    4.4012    1.9272    1.2183 H   0  0  0  0  0  0  0  0  0  0  0  0
    5.1823    0.3368    1.4704 H   0  0  0  0  0  0  0  0  0  0  0  0
    4.3317   -0.7475   -2.1904 H   0  0  0  0  0  0  0  0  0  0  0  0
    2.1954    1.5721   -0.2095 H   0  0  0  0  0  0  0  0  0  0  0  0
    2.6037    0.6910    2.1391 H   0  0  0  0  0  0  0  0  0  0  0  0
    3.1517   -0.8622    1.3440 H   0  0  0  0  0  0  0  0  0  0  0  0
    2.3249   -2.1410   -2.2164 H   0  0  0  0  0  0  0  0  0  0  0  0
    1.5192   -0.7261   -2.9230 H   0  0  0  0  0  0  0  0  0  0  0  0
   -0.1259   -2.1789   -1.8995 H   0  0  0  0  0  0  0  0  0  0  0  0
    0.8116   -2.2024   -0.3353 H   0  0  0  0  0  0  0  0  0  0  0  0
   -0.2327    0.4220   -1.5199 H   0  0  0  0  0  0  0  0  0  0  0  0
    0.5814   -0.5114    1.2301 H   0  0  0  0  0  0  0  0  0  0  0  0
   -1.2322   -1.3750    0.7691 H   0  0  0  0  0  0  0  0  0  0  0  0
   -1.8859    2.0491    1.7545 H   0  0  0  0  0  0  0  0  0  0  0  0
   -1.2883    0.4985    2.3798 H   0  0  0  0  0  0  0  0  0  0  0  0
   -0.2747    2.0655   -0.0460 H   0  0  0  0  0  0  0  0  0  0  0  0
    0.5755    2.0392    1.5626 H   0  0  0  0  0  0  0  0  0  0  0  0
   -2.5221   -1.0698   -2.0056 H   0  0  0  0  0  0  0  0  0  0  0  0
   -2.1689   -2.5086   -1.0192 H   0  0  0  0  0  0  0  0  0  0  0  0
   -4.0539   -2.2157    0.1987 H   0  0  0  0  0  0  0  0  0  0  0  0
   -4.5204   -0.7757   -0.8611 H   0  0  0  0  0  0  0  0  0  0  0  0
   -3.0890   -0.8834    1.8197 H   0  0  0  0  0  0  0  0  0  0  0  0
   -2.5441    1.0539   -1.6718 H   0  0  0  0  0  0  0  0  0  0  0  0
   -3.7844    1.5954   -0.5282 H   0  0  0  0  0  0  0  0  0  0  0  0
   -2.2154    2.4171   -0.5657 H   0  0  0  0  0  0  0  0  0  0  0  0
   -5.0195    0.0827    1.9633 H   0  0  0  0  0  0  0  0  0  0  0  0
  1  2  1  0
  2  3  1  0
  3  4  2  0
  4  5  1  0
  5  6  1  0
  1  6  1  0
  4  7  1  0
  7  8  1  0
  8  9  1  0
  9 10  1  0
  5 10  1  0
  9 11  1  0
 11 12  1  0
 12 13  1  0
 13 14  1  0
 10 14  1  0
 11 15  1  0
 15 16  1  0
 16 17  1  0
 12 17  1  0
  2 18  2  0
 12 19  1  6
 17 20  1  0
  1 21  1  0
  1 22  1  0
  3 23  1  0
  5 24  1  6
  6 25  1  0
  6 26  1  0
  7 27  1  0
  7 28  1  0
  8 29  1  0
  8 30  1  0
  9 31  1  6
 10 32  1  1
 11 33  1  1
 13 34  1  0
 13 35  1  0
 14 36  1  0
 14 37  1  0
 15 38  1  0
 15 39  1  0
 16 40  1  0
 16 41  1  0
 17 42  1  1
 19 43  1  0
 19 44  1  0
 19 45  1  0
 20 46  1  0
M  END

