347829148
     RDKit          3D

 58 60  0  0  1  0  0  0  0  0999 V2000
   -2.2545    1.6914   -0.6469 C   0  0  0  0  0  0  0  0  0  0  0  0
   -1.5492    0.3974   -0.1989 C   0  0  2  0  0  0  0  0  0  0  0  0
   -2.3564   -0.6799   -0.9835 C   0  0  0  0  0  0  0  0  0  0  0  0
   -3.8118   -0.6806   -0.6843 C   0  0  0  0  0  0  0  0  0  0  0  0
   -4.0886   -0.6993    0.8067 C   0  0  1  0  0  0  0  0  0  0  0  0
   -3.2172    0.2102    1.5606 C   0  0  0  0  0  0  0  0  0  0  0  0
   -1.7087    0.0986    1.2096 C   0  0  2  0  0  0  0  0  0  0  0  0
   -1.1220    1.0092    2.2527 C   0  0  0  0  0  0  0  0  0  0  0  0
   -1.6331    2.3070    2.2171 O   0  0  0  0  0  0  0  0  0  0  0  0
   -5.4086   -0.2825    0.9661 O   0  0  0  0  0  0  0  0  0  0  0  0
   -0.1835    0.4315   -0.8253 C   0  0  1  0  0  0  0  0  0  0  0  0
    0.6012    1.6092   -0.4271 C   0  0  0  0  0  0  0  0  0  0  0  0
    1.8855    1.4228    0.3090 C   0  0  0  0  0  0  0  0  0  0  0  0
    2.4170    0.0240    0.3391 C   0  0  1  0  0  0  0  0  0  0  0  0
    2.0411   -0.5362   -1.0110 C   0  0  2  0  0  0  0  0  0  0  0  0
    0.5617   -0.8572   -0.9523 C   0  0  2  0  0  0  0  0  0  0  0  0
    0.3553   -1.5639   -2.3132 C   0  0  0  0  0  0  0  0  0  0  0  0
    0.7668   -0.7536   -3.4104 N   0  0  0  0  0  0  0  0  0  0  0  0
    2.9552   -1.7046   -1.1055 C   0  0  0  0  0  0  0  0  0  0  0  0
    4.2876   -1.0770   -0.6454 C   0  0  0  0  0  0  0  0  0  0  0  0
    3.9099   -0.0082    0.2928 C   0  0  0  0  0  0  0  0  0  0  0  0
    4.7030    0.7762    0.9684 C   0  0  0  0  0  0  0  0  0  0  0  0
    1.9929   -0.8016    1.5000 C   0  0  0  0  0  0  0  0  0  0  0  0
   -2.1606    1.8172   -1.7452 H   0  0  0  0  0  0  0  0  0  0  0  0
   -1.9683    2.5665   -0.0678 H   0  0  0  0  0  0  0  0  0  0  0  0
   -3.3686    1.5947   -0.4787 H   0  0  0  0  0  0  0  0  0  0  0  0
   -2.2408   -0.4703   -2.0454 H   0  0  0  0  0  0  0  0  0  0  0  0
   -1.9751   -1.6186   -0.5925 H   0  0  0  0  0  0  0  0  0  0  0  0
   -4.1927   -1.6844   -1.0461 H   0  0  0  0  0  0  0  0  0  0  0  0
   -4.4298    0.0465   -1.2432 H   0  0  0  0  0  0  0  0  0  0  0  0
   -4.0377   -1.7397    1.2242 H   0  0  0  0  0  0  0  0  0  0  0  0
   -3.2511   -0.0870    2.6500 H   0  0  0  0  0  0  0  0  0  0  0  0
   -3.5485    1.2520    1.5276 H   0  0  0  0  0  0  0  0  0  0  0  0
   -1.4572   -0.9425    1.4329 H   0  0  0  0  0  0  0  0  0  0  0  0
   -1.5406    0.6070    3.2346 H   0  0  0  0  0  0  0  0  0  0  0  0
   -0.0577    0.9848    2.3941 H   0  0  0  0  0  0  0  0  0  0  0  0
   -0.9442    2.9600    2.5395 H   0  0  0  0  0  0  0  0  0  0  0  0
   -5.4654    0.7212    0.9128 H   0  0  0  0  0  0  0  0  0  0  0  0
   -0.4602    0.6299   -1.9310 H   0  0  0  0  0  0  0  0  0  0  0  0
    0.0180    2.3367    0.1624 H   0  0  0  0  0  0  0  0  0  0  0  0
    0.8886    2.2371   -1.3410 H   0  0  0  0  0  0  0  0  0  0  0  0
    2.7270    2.0302   -0.1570 H   0  0  0  0  0  0  0  0  0  0  0  0
    1.8901    1.7905    1.3570 H   0  0  0  0  0  0  0  0  0  0  0  0
    2.2212    0.2159   -1.8050 H   0  0  0  0  0  0  0  0  0  0  0  0
    0.3226   -1.6271   -0.2230 H   0  0  0  0  0  0  0  0  0  0  0  0
   -0.5993   -2.0853   -2.3980 H   0  0  0  0  0  0  0  0  0  0  0  0
    1.0874   -2.4442   -2.3498 H   0  0  0  0  0  0  0  0  0  0  0  0
    1.7716   -0.8360   -3.6312 H   0  0  0  0  0  0  0  0  0  0  0  0
    0.1602   -0.9240   -4.2245 H   0  0  0  0  0  0  0  0  0  0  0  0
    2.6443   -2.4880   -0.4136 H   0  0  0  0  0  0  0  0  0  0  0  0
    3.1702   -2.0666   -2.1306 H   0  0  0  0  0  0  0  0  0  0  0  0
    4.7668   -0.5789   -1.5329 H   0  0  0  0  0  0  0  0  0  0  0  0
    4.9634   -1.8316   -0.2303 H   0  0  0  0  0  0  0  0  0  0  0  0
    4.3335    1.5293    1.6307 H   0  0  0  0  0  0  0  0  0  0  0  0
    5.7873    0.6901    0.8799 H   0  0  0  0  0  0  0  0  0  0  0  0
    0.9314   -1.0143    1.5763 H   0  0  0  0  0  0  0  0  0  0  0  0
    2.6251   -1.7076    1.5910 H   0  0  0  0  0  0  0  0  0  0  0  0
    2.2455   -0.1964    2.4213 H   0  0  0  0  0  0  0  0  0  0  0  0
  2  1  1  1
  2  3  1  0
  3  4  1  0
  4  5  1  0
  5  6  1  0
  6  7  1  0
  2  7  1  0
  7  8  1  0
  8  9  1  0
  5 10  1  0
  2 11  1  0
 11 12  1  0
 12 13  1  0
 13 14  1  0
 14 15  1  0
 15 16  1  0
 11 16  1  0
 16 17  1  0
 17 18  1  0
 15 19  1  0
 19 20  1  0
 20 21  1  0
 14 21  1  0
 21 22  2  3
 14 23  1  1
  1 24  1  0
  1 25  1  0
  1 26  1  0
  3 27  1  0
  3 28  1  0
  4 29  1  0
  4 30  1  0
  5 31  1  1
  6 32  1  0
  6 33  1  0
  7 34  1  6
  8 35  1  0
  8 36  1  0
  9 37  1  0
 10 38  1  0
 11 39  1  6
 12 40  1  0
 12 41  1  0
 13 42  1  0
 13 43  1  0
 15 44  1  6
 16 45  1  1
 17 46  1  0
 17 47  1  0
 18 48  1  0
 18 49  1  0
 19 50  1  0
 19 51  1  0
 20 52  1  0
 20 53  1  0
 22 54  1  0
 22 55  1  0
 23 56  1  0
 23 57  1  0
 23 58  1  0
M  END

