347828670
     RDKit          3D

 79 83  0  0  1  0  0  0  0  0999 V2000
    1.3662   -3.0545    0.3192 C   0  0  0  0  0  0  0  0  0  0  0  0
   -0.0080   -3.3721   -0.0879 C   0  0  0  0  0  0  0  0  0  0  0  0
   -0.3699   -4.7146   -0.0461 C   0  0  0  0  0  0  0  0  0  0  0  0
   -1.6287   -5.0955   -0.4140 C   0  0  0  0  0  0  0  0  0  0  0  0
   -2.5209   -4.1390   -0.8192 C   0  0  0  0  0  0  0  0  0  0  0  0
   -2.1262   -2.8092   -0.8483 C   0  0  0  0  0  0  0  0  0  0  0  0
   -0.8713   -2.3840   -0.4887 C   0  0  0  0  0  0  0  0  0  0  0  0
   -0.5160   -0.9680   -0.5485 C   0  0  1  0  0  0  0  0  0  0  0  0
   -1.7227   -0.0367   -0.7474 C   0  0  0  0  0  0  0  0  0  0  0  0
   -2.4557    0.3232    0.4891 C   0  0  2  0  0  0  0  0  0  0  0  0
   -1.6667    0.3877    1.7315 C   0  0  0  0  0  0  0  0  0  0  0  0
   -0.6469   -0.6921    1.8414 C   0  0  0  0  0  0  0  0  0  0  0  0
    0.1766   -0.4483    0.6096 N   0  0  0  0  0  0  0  0  0  0  0  0
    1.3485    0.2523    0.7990 C   0  0  0  0  0  0  0  0  0  0  0  0
    1.6110    0.5664    2.0434 O   0  0  0  0  0  0  0  0  0  0  0  0
    2.3274    0.7158   -0.0916 N   0  0  0  0  0  0  0  0  0  0  0  0
    2.2849    0.4230   -1.4941 C   0  0  0  0  0  0  0  0  0  0  0  0
    3.4024    1.5617    0.4382 C   0  0  2  0  0  0  0  0  0  0  0  0
    3.0637    3.0229   -0.0107 C   0  0  0  0  0  0  0  0  0  0  0  0
    4.7482    1.2445    0.0686 C   0  0  0  0  0  0  0  0  0  0  0  0
    5.2680    1.7474   -1.1186 C   0  0  0  0  0  0  0  0  0  0  0  0
    6.5431    1.5004   -1.5724 C   0  0  0  0  0  0  0  0  0  0  0  0
    7.3814    0.7098   -0.8173 C   0  0  0  0  0  0  0  0  0  0  0  0
    6.9127    0.1836    0.3783 C   0  0  0  0  0  0  0  0  0  0  0  0
    5.6357    0.4478    0.7956 C   0  0  0  0  0  0  0  0  0  0  0  0
    7.8603   -0.6563    1.1811 C   0  0  0  0  0  0  0  0  0  0  0  0
    7.1922   -1.7606    1.6123 F   0  0  0  0  0  0  0  0  0  0  0  0
    8.2857    0.0668    2.2978 F   0  0  0  0  0  0  0  0  0  0  0  0
    8.9624   -1.0055    0.4382 F   0  0  0  0  0  0  0  0  0  0  0  0
    6.9916    2.0658   -2.8766 C   0  0  0  0  0  0  0  0  0  0  0  0
    6.0874    1.7053   -3.8691 F   0  0  0  0  0  0  0  0  0  0  0  0
    7.0259    3.4302   -2.8315 F   0  0  0  0  0  0  0  0  0  0  0  0
    8.2554    1.5947   -3.1635 F   0  0  0  0  0  0  0  0  0  0  0  0
   -3.7642   -0.2951    0.5854 N   0  0  0  0  0  0  0  0  0  0  0  0
   -4.4259   -0.2152    1.8162 C   0  0  0  0  0  0  0  0  0  0  0  0
   -5.0049    1.1640    2.0893 C   0  0  0  0  0  0  0  0  0  0  0  0
   -5.9882    1.4041    1.0490 N   0  0  0  0  0  0  0  0  0  0  0  0
   -5.9838    0.4894   -0.0705 C   0  0  2  0  0  0  0  0  0  0  0  0
   -4.5492    0.2654   -0.4818 C   0  0  0  0  0  0  0  0  0  0  0  0
   -6.7331    1.2043   -1.1885 C   0  0  0  0  0  0  0  0  0  0  0  0
   -7.6934    2.0597   -0.4080 C   0  0  0  0  0  0  0  0  0  0  0  0
   -7.0206    2.3815    0.8704 C   0  0  0  0  0  0  0  0  0  0  0  0
   -7.2828    3.3077    1.6479 O   0  0  0  0  0  0  0  0  0  0  0  0
   -2.0100   -6.4227   -0.3898 F   0  0  0  0  0  0  0  0  0  0  0  0
    1.4025   -2.5683    1.3027 H   0  0  0  0  0  0  0  0  0  0  0  0
    1.9557   -4.0188    0.5082 H   0  0  0  0  0  0  0  0  0  0  0  0
    1.9210   -2.5874   -0.4920 H   0  0  0  0  0  0  0  0  0  0  0  0
    0.3151   -5.4888    0.2684 H   0  0  0  0  0  0  0  0  0  0  0  0
   -3.5182   -4.4501   -1.1126 H   0  0  0  0  0  0  0  0  0  0  0  0
   -2.8492   -2.1272   -1.1821 H   0  0  0  0  0  0  0  0  0  0  0  0
    0.0988   -0.8338   -1.4321 H   0  0  0  0  0  0  0  0  0  0  0  0
   -1.2337    0.9436   -1.0973 H   0  0  0  0  0  0  0  0  0  0  0  0
   -2.2877   -0.3424   -1.6019 H   0  0  0  0  0  0  0  0  0  0  0  0
   -2.7739    1.4398    0.3332 H   0  0  0  0  0  0  0  0  0  0  0  0
   -2.2754    0.5162    2.6577 H   0  0  0  0  0  0  0  0  0  0  0  0
   -1.0769    1.3699    1.7082 H   0  0  0  0  0  0  0  0  0  0  0  0
   -0.0068   -0.5735    2.7358 H   0  0  0  0  0  0  0  0  0  0  0  0
   -1.0150   -1.7271    1.7274 H   0  0  0  0  0  0  0  0  0  0  0  0
    3.2198    0.7537   -2.0439 H   0  0  0  0  0  0  0  0  0  0  0  0
    1.4331    0.9839   -1.9557 H   0  0  0  0  0  0  0  0  0  0  0  0
    2.2776   -0.6729   -1.7340 H   0  0  0  0  0  0  0  0  0  0  0  0
    3.3054    1.6596    1.5587 H   0  0  0  0  0  0  0  0  0  0  0  0
    2.8153    2.9808   -1.0786 H   0  0  0  0  0  0  0  0  0  0  0  0
    3.9247    3.6404    0.2573 H   0  0  0  0  0  0  0  0  0  0  0  0
    2.2126    3.4066    0.5788 H   0  0  0  0  0  0  0  0  0  0  0  0
    4.6782    2.4215   -1.7642 H   0  0  0  0  0  0  0  0  0  0  0  0
    8.3989    0.4860   -1.1320 H   0  0  0  0  0  0  0  0  0  0  0  0
    5.2892    0.0255    1.7405 H   0  0  0  0  0  0  0  0  0  0  0  0
   -3.9145   -0.6331    2.7066 H   0  0  0  0  0  0  0  0  0  0  0  0
   -5.3393   -0.8858    1.7193 H   0  0  0  0  0  0  0  0  0  0  0  0
   -4.1826    1.9009    1.9877 H   0  0  0  0  0  0  0  0  0  0  0  0
   -5.4673    1.2007    3.1084 H   0  0  0  0  0  0  0  0  0  0  0  0
   -6.5280   -0.4538    0.1340 H   0  0  0  0  0  0  0  0  0  0  0  0
   -4.5341   -0.4497   -1.3534 H   0  0  0  0  0  0  0  0  0  0  0  0
   -4.1517    1.2517   -0.8199 H   0  0  0  0  0  0  0  0  0  0  0  0
   -6.0451    1.7825   -1.8279 H   0  0  0  0  0  0  0  0  0  0  0  0
   -7.2411    0.4661   -1.8257 H   0  0  0  0  0  0  0  0  0  0  0  0
   -7.9263    2.9522   -1.0267 H   0  0  0  0  0  0  0  0  0  0  0  0
   -8.6231    1.4751   -0.2703 H   0  0  0  0  0  0  0  0  0  0  0  0
  1  2  1  0
  2  3  2  0
  3  4  1  0
  4  5  2  0
  5  6  1  0
  6  7  2  0
  2  7  1  0
  8  7  1  0
  8  9  1  0
  9 10  1  0
 10 11  1  0
 11 12  1  0
 12 13  1  0
  8 13  1  0
 13 14  1  0
 14 15  2  0
 14 16  1  0
 16 17  1  0
 16 18  1  0
 18 19  1  0
 18 20  1  0
 20 21  2  0
 21 22  1  0
 22 23  2  0
 23 24  1  0
 24 25  2  0
 20 25  1  0
 24 26  1  0
 26 27  1  0
 26 28  1  0
 26 29  1  0
 22 30  1  0
 30 31  1  0
 30 32  1  0
 30 33  1  0
 10 34  1  0
 34 35  1  0
 35 36  1  0
 36 37  1  0
 38 37  1  0
 38 39  1  0
 34 39  1  0
 38 40  1  0
 40 41  1  0
 41 42  1  0
 37 42  1  0
 42 43  2  0
  4 44  1  0
  1 45  1  0
  1 46  1  0
  1 47  1  0
  3 48  1  0
  5 49  1  0
  6 50  1  0
  8 51  1  6
  9 52  1  0
  9 53  1  0
 10 54  1  6
 11 55  1  0
 11 56  1  0
 12 57  1  0
 12 58  1  0
 17 59  1  0
 17 60  1  0
 17 61  1  0
 18 62  1  1
 19 63  1  0
 19 64  1  0
 19 65  1  0
 21 66  1  0
 23 67  1  0
 25 68  1  0
 35 69  1  0
 35 70  1  0
 36 71  1  0
 36 72  1  0
 38 73  1  1
 39 74  1  0
 39 75  1  0
 40 76  1  0
 40 77  1  0
 41 78  1  0
 41 79  1  0
M  END

