347828583
     RDKit          3D

 61 64  0  0  0  0  0  0  0  0999 V2000
   -4.5599    0.4694   -0.6911 C   0  0  0  0  0  0  0  0  0  0  0  0
   -3.8351   -0.1199    0.5085 C   0  0  0  0  0  0  0  0  0  0  0  0
   -4.3157   -1.5583    0.7226 C   0  0  0  0  0  0  0  0  0  0  0  0
   -3.9169   -2.4147   -0.4526 C   0  0  0  0  0  0  0  0  0  0  0  0
   -2.4486   -2.4878   -0.5731 C   0  0  0  0  0  0  0  0  0  0  0  0
   -1.7318   -1.2376   -0.2346 C   0  0  0  0  0  0  0  0  0  0  0  0
   -2.3703   -0.1364    0.2872 C   0  0  0  0  0  0  0  0  0  0  0  0
   -1.5843    0.9436    0.5775 C   0  0  0  0  0  0  0  0  0  0  0  0
   -0.2063    1.0002    0.3827 C   0  0  0  0  0  0  0  0  0  0  0  0
    0.4217   -0.0968   -0.1363 C   0  0  0  0  0  0  0  0  0  0  0  0
   -0.3699   -1.2220   -0.4433 C   0  0  0  0  0  0  0  0  0  0  0  0
    1.8321   -0.2546   -0.3613 C   0  0  0  0  0  0  0  0  0  0  0  0
    2.8540    0.4653    0.0181 C   0  0  0  0  0  0  0  0  0  0  0  0
    4.2523    0.1215   -0.3301 C   0  0  0  0  0  0  0  0  0  0  0  0
    5.2708    0.9368    0.1617 C   0  0  0  0  0  0  0  0  0  0  0  0
    6.5914    0.6660   -0.1236 C   0  0  0  0  0  0  0  0  0  0  0  0
    6.9419   -0.4299   -0.9115 C   0  0  0  0  0  0  0  0  0  0  0  0
    5.9520   -1.2425   -1.4041 C   0  0  0  0  0  0  0  0  0  0  0  0
    4.6183   -0.9324   -1.0906 C   0  0  0  0  0  0  0  0  0  0  0  0
    8.3213   -0.7445   -1.2197 C   0  0  0  0  0  0  0  0  0  0  0  0
    8.6239   -1.7175   -1.9277 O   0  0  0  0  0  0  0  0  0  0  0  0
    9.3627    0.0430   -0.7254 O   0  0  0  0  0  0  0  0  0  0  0  0
    0.4798    2.2655    0.7476 C   0  0  0  0  0  0  0  0  0  0  0  0
   -0.5347    3.2774    1.0205 N   0  0  0  0  0  0  0  0  0  0  0  0
   -1.0682    4.1050    0.1190 C   0  0  0  0  0  0  0  0  0  0  0  0
   -1.9845    4.9195    0.7874 C   0  0  0  0  0  0  0  0  0  0  0  0
   -1.9508    4.5219    2.1045 C   0  0  0  0  0  0  0  0  0  0  0  0
   -1.0497    3.5119    2.2117 N   0  0  0  0  0  0  0  0  0  0  0  0
   -1.9286   -3.5367    0.4219 C   0  0  0  0  0  0  0  0  0  0  0  0
   -2.0776   -3.0223   -1.9479 C   0  0  0  0  0  0  0  0  0  0  0  0
   -4.1671    0.6500    1.7632 C   0  0  0  0  0  0  0  0  0  0  0  0
   -4.8857    1.5007   -0.4799 H   0  0  0  0  0  0  0  0  0  0  0  0
   -3.8948    0.4855   -1.5889 H   0  0  0  0  0  0  0  0  0  0  0  0
   -5.4167   -0.1825   -0.9444 H   0  0  0  0  0  0  0  0  0  0  0  0
   -5.4272   -1.4899    0.8370 H   0  0  0  0  0  0  0  0  0  0  0  0
   -3.8223   -1.9607    1.6312 H   0  0  0  0  0  0  0  0  0  0  0  0
   -4.3009   -3.4347   -0.2293 H   0  0  0  0  0  0  0  0  0  0  0  0
   -4.4413   -2.0063   -1.3419 H   0  0  0  0  0  0  0  0  0  0  0  0
   -2.0915    1.8173    0.9903 H   0  0  0  0  0  0  0  0  0  0  0  0
    0.1071   -2.1190   -0.8605 H   0  0  0  0  0  0  0  0  0  0  0  0
    2.1440   -1.1284   -0.9816 H   0  0  0  0  0  0  0  0  0  0  0  0
    2.7078    1.3167    0.6180 H   0  0  0  0  0  0  0  0  0  0  0  0
    4.9953    1.8024    0.7830 H   0  0  0  0  0  0  0  0  0  0  0  0
    7.3734    1.2920    0.2556 H   0  0  0  0  0  0  0  0  0  0  0  0
    6.1975   -2.0998   -2.0170 H   0  0  0  0  0  0  0  0  0  0  0  0
    3.8882   -1.6019   -1.5059 H   0  0  0  0  0  0  0  0  0  0  0  0
    9.5785    0.0270    0.2636 H   0  0  0  0  0  0  0  0  0  0  0  0
    1.0926    2.5982   -0.0951 H   0  0  0  0  0  0  0  0  0  0  0  0
    1.1111    2.1438    1.6522 H   0  0  0  0  0  0  0  0  0  0  0  0
   -0.8780    4.1866   -0.9377 H   0  0  0  0  0  0  0  0  0  0  0  0
   -2.5718    5.6850    0.3237 H   0  0  0  0  0  0  0  0  0  0  0  0
   -2.5311    4.9291    2.9278 H   0  0  0  0  0  0  0  0  0  0  0  0
   -0.9624   -3.9561    0.0534 H   0  0  0  0  0  0  0  0  0  0  0  0
   -2.7105   -4.3163    0.4771 H   0  0  0  0  0  0  0  0  0  0  0  0
   -1.7766   -3.0787    1.4167 H   0  0  0  0  0  0  0  0  0  0  0  0
   -2.7945   -3.8759   -2.1183 H   0  0  0  0  0  0  0  0  0  0  0  0
   -2.1846   -2.2755   -2.7332 H   0  0  0  0  0  0  0  0  0  0  0  0
   -1.0594   -3.4500   -1.8578 H   0  0  0  0  0  0  0  0  0  0  0  0
   -4.3149    1.7252    1.5278 H   0  0  0  0  0  0  0  0  0  0  0  0
   -5.1539    0.2551    2.1330 H   0  0  0  0  0  0  0  0  0  0  0  0
   -3.3996    0.4681    2.5400 H   0  0  0  0  0  0  0  0  0  0  0  0
  1  2  1  0
  2  3  1  0
  3  4  1  0
  4  5  1  0
  5  6  1  0
  6  7  2  0
  2  7  1  0
  7  8  1  0
  8  9  2  0
  9 10  1  0
 10 11  2  0
  6 11  1  0
 10 12  1  0
 12 13  2  0
 13 14  1  0
 14 15  2  0
 15 16  1  0
 16 17  2  0
 17 18  1  0
 18 19  2  0
 14 19  1  0
 17 20  1  0
 20 21  2  0
 20 22  1  0
  9 23  1  0
 23 24  1  0
 24 25  1  0
 25 26  2  0
 26 27  1  0
 27 28  2  0
 24 28  1  0
  5 29  1  0
  5 30  1  0
  2 31  1  0
  1 32  1  0
  1 33  1  0
  1 34  1  0
  3 35  1  0
  3 36  1  0
  4 37  1  0
  4 38  1  0
  8 39  1  0
 11 40  1  0
 12 41  1  0
 13 42  1  0
 15 43  1  0
 16 44  1  0
 18 45  1  0
 19 46  1  0
 22 47  1  0
 23 48  1  0
 23 49  1  0
 25 50  1  0
 26 51  1  0
 27 52  1  0
 29 53  1  0
 29 54  1  0
 29 55  1  0
 30 56  1  0
 30 57  1  0
 30 58  1  0
 31 59  1  0
 31 60  1  0
 31 61  1  0
M  END

