347828792
     RDKit          3D

 56 59  0  0  0  0  0  0  0  0999 V2000
    7.0892   -0.9746    0.0971 C   0  0  0  0  0  0  0  0  0  0  0  0
    5.7914   -1.6913   -0.1973 C   0  0  0  0  0  0  0  0  0  0  0  0
    5.6152   -2.6504    0.8342 O   0  0  0  0  0  0  0  0  0  0  0  0
    4.6963   -0.7163   -0.1537 C   0  0  0  0  0  0  0  0  0  0  0  0
    3.4281   -1.1307   -0.3153 N   0  0  0  0  0  0  0  0  0  0  0  0
    2.3929   -0.2951   -0.2692 C   0  0  0  0  0  0  0  0  0  0  0  0
    2.5701    1.0812   -0.0514 C   0  0  0  0  0  0  0  0  0  0  0  0
    3.8506    1.5510    0.1184 C   0  0  0  0  0  0  0  0  0  0  0  0
    4.8852    0.6221    0.0612 C   0  0  0  0  0  0  0  0  0  0  0  0
    1.4012    1.9440    0.0277 C   0  0  0  0  0  0  0  0  0  0  0  0
    0.1663    1.3468   -0.0368 N   0  0  0  0  0  0  0  0  0  0  0  0
   -0.9058    2.1461    0.0479 C   0  0  0  0  0  0  0  0  0  0  0  0
   -0.7981    3.5024    0.1899 C   0  0  0  0  0  0  0  0  0  0  0  0
    0.4169    4.1076    0.2532 N   0  0  0  0  0  0  0  0  0  0  0  0
    1.5160    3.3015    0.1701 C   0  0  0  0  0  0  0  0  0  0  0  0
   -1.9419    4.3532    0.2734 N   0  0  0  0  0  0  0  0  0  0  0  0
   -3.1529    3.7823    0.8242 C   0  0  0  0  0  0  0  0  0  0  0  0
   -3.3509    2.4511    0.1821 C   0  0  0  0  0  0  0  0  0  0  0  0
   -4.4580    2.0586   -0.2393 O   0  0  0  0  0  0  0  0  0  0  0  0
   -2.2370    1.5833    0.0417 N   0  0  0  0  0  0  0  0  0  0  0  0
   -2.4034    0.1588   -0.0618 C   0  0  1  0  0  0  0  0  0  0  0  0
   -2.8529   -0.3308    1.2979 C   0  0  0  0  0  0  0  0  0  0  0  0
   -3.3120   -1.7550    1.2793 C   0  0  0  0  0  0  0  0  0  0  0  0
   -4.3125   -1.9749    0.1378 C   0  0  1  0  0  0  0  0  0  0  0  0
   -3.4987   -1.8163   -1.1132 C   0  0  0  0  0  0  0  0  0  0  0  0
   -3.1977   -0.3208   -1.1996 C   0  0  0  0  0  0  0  0  0  0  0  0
   -4.9445   -3.1693    0.3050 O   0  0  0  0  0  0  0  0  0  0  0  0
   -6.2684   -2.9375    0.6786 C   0  0  0  0  0  0  0  0  0  0  0  0
    5.8605   -2.3779   -1.5410 C   0  0  0  0  0  0  0  0  0  0  0  0
    7.9613   -1.6759    0.0288 H   0  0  0  0  0  0  0  0  0  0  0  0
    7.2541   -0.1814   -0.6437 H   0  0  0  0  0  0  0  0  0  0  0  0
    7.0543   -0.6192    1.1579 H   0  0  0  0  0  0  0  0  0  0  0  0
    4.6642   -2.6053    1.0925 H   0  0  0  0  0  0  0  0  0  0  0  0
    1.3726   -0.6796   -0.4120 H   0  0  0  0  0  0  0  0  0  0  0  0
    4.0678    2.5845    0.2881 H   0  0  0  0  0  0  0  0  0  0  0  0
    5.8850    1.0071    0.1966 H   0  0  0  0  0  0  0  0  0  0  0  0
    2.5047    3.7580    0.2200 H   0  0  0  0  0  0  0  0  0  0  0  0
   -1.9382    5.3452   -0.0387 H   0  0  0  0  0  0  0  0  0  0  0  0
   -2.9558    3.6242    1.9116 H   0  0  0  0  0  0  0  0  0  0  0  0
   -4.0391    4.4273    0.6857 H   0  0  0  0  0  0  0  0  0  0  0  0
   -1.3491   -0.2625   -0.2169 H   0  0  0  0  0  0  0  0  0  0  0  0
   -1.9797   -0.2731    1.9701 H   0  0  0  0  0  0  0  0  0  0  0  0
   -3.6533    0.2877    1.7323 H   0  0  0  0  0  0  0  0  0  0  0  0
   -2.4845   -2.4624    1.1100 H   0  0  0  0  0  0  0  0  0  0  0  0
   -3.8328   -2.0470    2.1977 H   0  0  0  0  0  0  0  0  0  0  0  0
   -5.0593   -1.1445    0.2859 H   0  0  0  0  0  0  0  0  0  0  0  0
   -2.5249   -2.3399   -0.9633 H   0  0  0  0  0  0  0  0  0  0  0  0
   -4.0159   -2.1727   -2.0264 H   0  0  0  0  0  0  0  0  0  0  0  0
   -4.1974    0.1294   -1.3479 H   0  0  0  0  0  0  0  0  0  0  0  0
   -2.5836   -0.2408   -2.1441 H   0  0  0  0  0  0  0  0  0  0  0  0
   -6.7540   -2.3611   -0.1348 H   0  0  0  0  0  0  0  0  0  0  0  0
   -6.8454   -3.8845    0.8364 H   0  0  0  0  0  0  0  0  0  0  0  0
   -6.3063   -2.3029    1.6245 H   0  0  0  0  0  0  0  0  0  0  0  0
    4.8645   -2.4702   -2.0329 H   0  0  0  0  0  0  0  0  0  0  0  0
    6.2547   -3.4271   -1.3762 H   0  0  0  0  0  0  0  0  0  0  0  0
    6.5909   -1.8626   -2.1888 H   0  0  0  0  0  0  0  0  0  0  0  0
  1  2  1  0
  2  3  1  0
  2  4  1  0
  4  5  2  0
  5  6  1  0
  6  7  2  0
  7  8  1  0
  8  9  2  0
  4  9  1  0
  7 10  1  0
 10 11  2  0
 11 12  1  0
 12 13  2  0
 13 14  1  0
 14 15  2  0
 10 15  1  0
 13 16  1  0
 16 17  1  0
 17 18  1  0
 18 19  2  0
 18 20  1  0
 12 20  1  0
 21 20  1  0
 21 22  1  0
 22 23  1  0
 23 24  1  0
 24 25  1  0
 25 26  1  0
 21 26  1  0
 24 27  1  0
 27 28  1  0
  2 29  1  0
  1 30  1  0
  1 31  1  0
  1 32  1  0
  3 33  1  0
  6 34  1  0
  8 35  1  0
  9 36  1  0
 15 37  1  0
 16 38  1  0
 17 39  1  0
 17 40  1  0
 21 41  1  6
 22 42  1  0
 22 43  1  0
 23 44  1  0
 23 45  1  0
 24 46  1  6
 25 47  1  0
 25 48  1  0
 26 49  1  0
 26 50  1  0
 28 51  1  0
 28 52  1  0
 28 53  1  0
 29 54  1  0
 29 55  1  0
 29 56  1  0
M  END

