347828609
     RDKit          3D

 67 70  0  0  1  0  0  0  0  0999 V2000
   -3.4457    4.3370    1.2898 C   0  0  0  0  0  0  0  0  0  0  0  0
   -3.7520    3.0731    2.0665 C   0  0  0  0  0  0  0  0  0  0  0  0
   -5.2252    2.7786    1.9840 C   0  0  0  0  0  0  0  0  0  0  0  0
   -3.4421    3.4094    3.5259 C   0  0  0  0  0  0  0  0  0  0  0  0
   -2.9914    1.9125    1.6009 C   0  0  0  0  0  0  0  0  0  0  0  0
   -2.2703    1.3220    2.3821 O   0  0  0  0  0  0  0  0  0  0  0  0
   -3.0636    1.4240    0.2095 C   0  0  0  0  0  0  0  0  0  0  0  0
   -2.3350    0.2370   -0.0697 N   0  0  0  0  0  0  0  0  0  0  0  0
   -3.0271   -1.0002    0.0313 C   0  0  0  0  0  0  0  0  0  0  0  0
   -4.1338   -0.8963    0.8403 C   0  0  0  0  0  0  0  0  0  0  0  0
   -4.8676   -2.0386    1.0774 C   0  0  0  0  0  0  0  0  0  0  0  0
   -4.4863   -3.2338    0.5128 C   0  0  0  0  0  0  0  0  0  0  0  0
   -3.3781   -3.3460   -0.3005 C   0  0  0  0  0  0  0  0  0  0  0  0
   -2.6429   -2.2135   -0.5452 C   0  0  0  0  0  0  0  0  0  0  0  0
   -1.5281   -2.4483   -1.4610 C   0  0  0  0  0  0  0  0  0  0  0  0
   -0.4035   -1.8028   -1.4136 N   0  0  0  0  0  0  0  0  0  0  0  0
    0.0595   -0.7431   -0.5270 C   0  0  2  0  0  0  0  0  0  0  0  0
   -0.9529    0.3482   -0.4548 C   0  0  0  0  0  0  0  0  0  0  0  0
   -0.5992    1.5000   -0.7544 O   0  0  0  0  0  0  0  0  0  0  0  0
    1.3022   -0.2123   -0.9964 N   0  0  0  0  0  0  0  0  0  0  0  0
    2.4957   -0.2380   -0.1740 C   0  0  0  0  0  0  0  0  0  0  0  0
    2.3792   -0.7526    0.9620 O   0  0  0  0  0  0  0  0  0  0  0  0
    3.6643    0.2949   -0.6787 N   0  0  0  0  0  0  0  0  0  0  0  0
    4.8896    0.3198    0.0199 C   0  0  0  0  0  0  0  0  0  0  0  0
    5.2010   -0.4327    1.1283 C   0  0  0  0  0  0  0  0  0  0  0  0
    6.4247   -0.3179    1.7597 C   0  0  0  0  0  0  0  0  0  0  0  0
    7.3822    0.5580    1.3009 C   0  0  0  0  0  0  0  0  0  0  0  0
    7.1025    1.3250    0.1955 C   0  0  0  0  0  0  0  0  0  0  0  0
    5.8742    1.1935   -0.4193 C   0  0  0  0  0  0  0  0  0  0  0  0
    8.0751    2.2553   -0.3037 N   0  0  0  0  0  0  0  0  0  0  0  0
    9.3415    2.3901    0.3576 C   0  0  0  0  0  0  0  0  0  0  0  0
   -1.7135   -3.4501   -2.4825 C   0  0  0  0  0  0  0  0  0  0  0  0
   -0.6235   -3.6876   -3.3104 C   0  0  0  0  0  0  0  0  0  0  0  0
   -0.7611   -4.5709   -4.3382 C   0  0  0  0  0  0  0  0  0  0  0  0
   -1.9710   -5.2023   -4.5288 C   0  0  0  0  0  0  0  0  0  0  0  0
   -3.0530   -4.9441   -3.6796 C   0  0  0  0  0  0  0  0  0  0  0  0
   -2.8409   -4.0772   -2.7082 N   0  0  0  0  0  0  0  0  0  0  0  0
   -2.4448    4.7254    1.4815 H   0  0  0  0  0  0  0  0  0  0  0  0
   -3.6606    4.1576    0.2110 H   0  0  0  0  0  0  0  0  0  0  0  0
   -4.1758    5.1008    1.6545 H   0  0  0  0  0  0  0  0  0  0  0  0
   -5.8451    3.6813    2.1697 H   0  0  0  0  0  0  0  0  0  0  0  0
   -5.4490    2.2850    1.0345 H   0  0  0  0  0  0  0  0  0  0  0  0
   -5.4240    2.0077    2.7828 H   0  0  0  0  0  0  0  0  0  0  0  0
   -3.9108    2.7247    4.2332 H   0  0  0  0  0  0  0  0  0  0  0  0
   -3.8937    4.4323    3.6732 H   0  0  0  0  0  0  0  0  0  0  0  0
   -2.3527    3.5539    3.6894 H   0  0  0  0  0  0  0  0  0  0  0  0
   -2.5472    2.2390   -0.3900 H   0  0  0  0  0  0  0  0  0  0  0  0
   -4.0897    1.4483   -0.2144 H   0  0  0  0  0  0  0  0  0  0  0  0
   -4.3878    0.0648    1.2440 H   0  0  0  0  0  0  0  0  0  0  0  0
   -5.7408   -1.9621    1.7149 H   0  0  0  0  0  0  0  0  0  0  0  0
   -5.0558   -4.1525    0.6884 H   0  0  0  0  0  0  0  0  0  0  0  0
   -3.0491   -4.2872   -0.7173 H   0  0  0  0  0  0  0  0  0  0  0  0
    0.1976   -1.1347    0.5173 H   0  0  0  0  0  0  0  0  0  0  0  0
    1.3602    0.1948   -1.9305 H   0  0  0  0  0  0  0  0  0  0  0  0
    3.6469    0.7117   -1.6572 H   0  0  0  0  0  0  0  0  0  0  0  0
    4.4718   -1.1454    1.5155 H   0  0  0  0  0  0  0  0  0  0  0  0
    6.5957   -0.9479    2.6343 H   0  0  0  0  0  0  0  0  0  0  0  0
    8.3444    0.6307    1.8150 H   0  0  0  0  0  0  0  0  0  0  0  0
    5.6577    1.8062   -1.3001 H   0  0  0  0  0  0  0  0  0  0  0  0
    7.8101    2.8049   -1.1459 H   0  0  0  0  0  0  0  0  0  0  0  0
    9.7915    3.3594    0.0288 H   0  0  0  0  0  0  0  0  0  0  0  0
    9.9793    1.5356    0.0261 H   0  0  0  0  0  0  0  0  0  0  0  0
    9.2220    2.3999    1.4415 H   0  0  0  0  0  0  0  0  0  0  0  0
    0.3305   -3.1692   -3.1314 H   0  0  0  0  0  0  0  0  0  0  0  0
    0.0710   -4.7839   -5.0088 H   0  0  0  0  0  0  0  0  0  0  0  0
   -2.1363   -5.9097   -5.3258 H   0  0  0  0  0  0  0  0  0  0  0  0
   -3.9994   -5.4416   -3.8327 H   0  0  0  0  0  0  0  0  0  0  0  0
  1  2  1  0
  2  3  1  0
  2  4  1  0
  2  5  1  0
  5  6  2  0
  5  7  1  0
  7  8  1  0
  8  9  1  0
  9 10  2  0
 10 11  1  0
 11 12  2  0
 12 13  1  0
 13 14  2  0
  9 14  1  0
 14 15  1  0
 15 16  2  0
 16 17  1  0
 17 18  1  0
  8 18  1  0
 18 19  2  0
 17 20  1  0
 20 21  1  0
 21 22  2  0
 21 23  1  0
 23 24  1  0
 24 25  2  0
 25 26  1  0
 26 27  2  0
 27 28  1  0
 28 29  2  0
 24 29  1  0
 28 30  1  0
 30 31  1  0
 15 32  1  0
 32 33  2  0
 33 34  1  0
 34 35  2  0
 35 36  1  0
 36 37  2  0
 32 37  1  0
  1 38  1  0
  1 39  1  0
  1 40  1  0
  3 41  1  0
  3 42  1  0
  3 43  1  0
  4 44  1  0
  4 45  1  0
  4 46  1  0
  7 47  1  0
  7 48  1  0
 10 49  1  0
 11 50  1  0
 12 51  1  0
 13 52  1  0
 17 53  1  1
 20 54  1  0
 23 55  1  0
 25 56  1  0
 26 57  1  0
 27 58  1  0
 29 59  1  0
 30 60  1  0
 31 61  1  0
 31 62  1  0
 31 63  1  0
 33 64  1  0
 34 65  1  0
 35 66  1  0
 36 67  1  0
M  END

