347828363
     RDKit          3D

 88 92  0  0  1  0  0  0  0  0999 V2000
    3.9444   -2.8214    0.1458 C   0  0  0  0  0  0  0  0  0  0  0  0
    4.1691   -3.2775    1.5750 C   0  0  1  0  0  0  0  0  0  0  0  0
    5.6174   -3.3006    1.9367 C   0  0  1  0  0  0  0  0  0  0  0  0
    6.1369   -2.2432    2.8095 C   0  0  2  0  0  0  0  0  0  0  0  0
    5.1098   -1.3065    3.4142 C   0  0  2  0  0  0  0  0  0  0  0  0
    3.9628   -1.2104    2.5004 C   0  0  1  0  0  0  0  0  0  0  0  0
    3.4037   -2.5404    2.4850 O   0  0  0  0  0  0  0  0  0  0  0  0
    2.9204   -0.3158    2.8315 O   0  0  0  0  0  0  0  0  0  0  0  0
    1.9065   -0.0029    1.9748 C   0  0  0  0  0  0  0  0  0  0  0  0
    0.8019   -0.8735    2.0316 C   0  0  0  0  0  0  0  0  0  0  0  0
    0.8097   -1.8324    2.8326 O   0  0  0  0  0  0  0  0  0  0  0  0
   -0.3057   -0.7040    1.2226 C   0  0  0  0  0  0  0  0  0  0  0  0
   -1.3932   -1.5314    1.2545 C   0  0  0  0  0  0  0  0  0  0  0  0
   -2.4686   -1.2758    0.3915 C   0  0  0  0  0  0  0  0  0  0  0  0
   -2.3930   -0.2069   -0.4543 C   0  0  0  0  0  0  0  0  0  0  0  0
   -1.3028    0.6246   -0.4880 C   0  0  0  0  0  0  0  0  0  0  0  0
   -0.2176    0.3912    0.3649 C   0  0  0  0  0  0  0  0  0  0  0  0
    0.8150    1.1795    0.3357 O   0  0  0  0  0  0  0  0  0  0  0  0
    1.8985    1.0307    1.1165 C   0  0  0  0  0  0  0  0  0  0  0  0
    2.9780    2.0194    0.9575 C   0  0  0  0  0  0  0  0  0  0  0  0
    4.0180    2.1811    1.8248 C   0  0  0  0  0  0  0  0  0  0  0  0
    5.0241    3.1286    1.5700 C   0  0  0  0  0  0  0  0  0  0  0  0
    4.9862    3.9186    0.4412 C   0  0  0  0  0  0  0  0  0  0  0  0
    3.9378    3.7532   -0.4267 C   0  0  0  0  0  0  0  0  0  0  0  0
    2.9383    2.8078   -0.1696 C   0  0  0  0  0  0  0  0  0  0  0  0
    6.0007    4.8678    0.1947 O   0  0  0  0  0  0  0  0  0  0  0  0
    7.0425    4.9698    1.1444 C   0  0  0  0  0  0  0  0  0  0  0  0
   -1.1802    1.7929   -1.4021 C   0  0  0  0  0  0  0  0  0  0  0  0
   -1.9774    2.9433   -1.0145 C   0  0  0  0  0  0  0  0  0  0  0  0
   -2.8593    3.5117   -1.7932 C   0  0  0  0  0  0  0  0  0  0  0  0
   -3.2122    3.1190   -3.1736 C   0  0  0  0  0  0  0  0  0  0  0  0
   -3.6154    4.7046   -1.2412 C   0  0  0  0  0  0  0  0  0  0  0  0
   -3.4642    0.0481   -1.3127 O   0  0  0  0  0  0  0  0  0  0  0  0
   -4.6800   -0.6353   -1.2887 C   0  0  1  0  0  0  0  0  0  0  0  0
   -5.8813    0.1097   -1.7493 C   0  0  1  0  0  0  0  0  0  0  0  0
   -6.6482   -0.6102   -2.8360 C   0  0  2  0  0  0  0  0  0  0  0  0
   -6.8289   -2.0712   -2.6128 C   0  0  1  0  0  0  0  0  0  0  0  0
   -5.7627   -2.6134   -1.7190 C   0  0  2  0  0  0  0  0  0  0  0  0
   -4.5853   -1.8943   -1.9362 O   0  0  0  0  0  0  0  0  0  0  0  0
   -5.4409   -4.0400   -2.1880 C   0  0  0  0  0  0  0  0  0  0  0  0
   -6.5335   -4.8891   -2.0263 O   0  0  0  0  0  0  0  0  0  0  0  0
   -8.1116   -2.3478   -2.0837 O   0  0  0  0  0  0  0  0  0  0  0  0
   -6.1522   -0.2669   -4.0879 O   0  0  0  0  0  0  0  0  0  0  0  0
   -6.8009    0.3008   -0.6880 O   0  0  0  0  0  0  0  0  0  0  0  0
   -1.5082   -2.5977    2.0721 O   0  0  0  0  0  0  0  0  0  0  0  0
    5.7495   -0.1063    3.7335 O   0  0  0  0  0  0  0  0  0  0  0  0
    7.0117   -1.4107    2.0654 O   0  0  0  0  0  0  0  0  0  0  0  0
    5.9809   -4.5670    2.4521 O   0  0  0  0  0  0  0  0  0  0  0  0
    3.9309   -3.7233   -0.4974 H   0  0  0  0  0  0  0  0  0  0  0  0
    2.9409   -2.3321    0.0369 H   0  0  0  0  0  0  0  0  0  0  0  0
    4.7718   -2.1869   -0.2294 H   0  0  0  0  0  0  0  0  0  0  0  0
    3.7849   -4.3160    1.6398 H   0  0  0  0  0  0  0  0  0  0  0  0
    6.1749   -3.2682    0.9480 H   0  0  0  0  0  0  0  0  0  0  0  0
    6.7487   -2.6967    3.6316 H   0  0  0  0  0  0  0  0  0  0  0  0
    4.8148   -1.8363    4.3891 H   0  0  0  0  0  0  0  0  0  0  0  0
    4.2491   -1.0480    1.4577 H   0  0  0  0  0  0  0  0  0  0  0  0
   -3.3330   -1.9507    0.4176 H   0  0  0  0  0  0  0  0  0  0  0  0
    4.0729    1.6114    2.7363 H   0  0  0  0  0  0  0  0  0  0  0  0
    5.8257    3.2364    2.2579 H   0  0  0  0  0  0  0  0  0  0  0  0
    3.9069    4.3712   -1.3082 H   0  0  0  0  0  0  0  0  0  0  0  0
    2.1453    2.7392   -0.9030 H   0  0  0  0  0  0  0  0  0  0  0  0
    6.6759    5.3468    2.1417 H   0  0  0  0  0  0  0  0  0  0  0  0
    7.8419    5.6561    0.8187 H   0  0  0  0  0  0  0  0  0  0  0  0
    7.5032    3.9800    1.3502 H   0  0  0  0  0  0  0  0  0  0  0  0
   -0.1014    2.1018   -1.4567 H   0  0  0  0  0  0  0  0  0  0  0  0
   -1.4111    1.4118   -2.4145 H   0  0  0  0  0  0  0  0  0  0  0  0
   -1.8194    3.3478   -0.0059 H   0  0  0  0  0  0  0  0  0  0  0  0
   -3.1936    4.0057   -3.8688 H   0  0  0  0  0  0  0  0  0  0  0  0
   -4.2812    2.7717   -3.2388 H   0  0  0  0  0  0  0  0  0  0  0  0
   -2.5899    2.3642   -3.6376 H   0  0  0  0  0  0  0  0  0  0  0  0
   -2.8794    5.5278   -1.2204 H   0  0  0  0  0  0  0  0  0  0  0  0
   -4.4892    4.9650   -1.8410 H   0  0  0  0  0  0  0  0  0  0  0  0
   -3.9726    4.4944   -0.2113 H   0  0  0  0  0  0  0  0  0  0  0  0
   -4.8618   -0.9473   -0.2147 H   0  0  0  0  0  0  0  0  0  0  0  0
   -5.6176    1.1105   -2.0903 H   0  0  0  0  0  0  0  0  0  0  0  0
   -7.6857   -0.1510   -2.8119 H   0  0  0  0  0  0  0  0  0  0  0  0
   -6.7607   -2.6180   -3.5908 H   0  0  0  0  0  0  0  0  0  0  0  0
   -6.0270   -2.7010   -0.6550 H   0  0  0  0  0  0  0  0  0  0  0  0
   -5.2367   -4.0061   -3.2912 H   0  0  0  0  0  0  0  0  0  0  0  0
   -4.5552   -4.4565   -1.7058 H   0  0  0  0  0  0  0  0  0  0  0  0
   -7.0675   -4.5972   -1.2226 H   0  0  0  0  0  0  0  0  0  0  0  0
   -8.7422   -2.4484   -2.8446 H   0  0  0  0  0  0  0  0  0  0  0  0
   -5.4523   -0.9414   -4.3404 H   0  0  0  0  0  0  0  0  0  0  0  0
   -7.6945    0.4431   -1.1039 H   0  0  0  0  0  0  0  0  0  0  0  0
   -0.9298   -2.9694    2.7304 H   0  0  0  0  0  0  0  0  0  0  0  0
    5.8866   -0.0673    4.7032 H   0  0  0  0  0  0  0  0  0  0  0  0
    7.5832   -0.8697    2.6922 H   0  0  0  0  0  0  0  0  0  0  0  0
    6.0037   -5.2632    1.7660 H   0  0  0  0  0  0  0  0  0  0  0  0
  2  1  1  0
  2  3  1  0
  3  4  1  0
  4  5  1  0
  5  6  1  0
  6  7  1  0
  2  7  1  0
  6  8  1  0
  8  9  1  0
  9 10  1  0
 10 11  2  0
 10 12  1  0
 12 13  2  0
 13 14  1  0
 14 15  2  0
 15 16  1  0
 16 17  2  0
 12 17  1  0
 17 18  1  0
 18 19  1  0
  9 19  2  0
 19 20  1  0
 20 21  2  0
 21 22  1  0
 22 23  2  0
 23 24  1  0
 24 25  2  0
 20 25  1  0
 23 26  1  0
 26 27  1  0
 16 28  1  0
 28 29  1  0
 29 30  2  3
 30 31  1  0
 30 32  1  0
 15 33  1  0
 34 33  1  0
 34 35  1  0
 35 36  1  0
 36 37  1  0
 37 38  1  0
 38 39  1  0
 34 39  1  0
 38 40  1  0
 40 41  1  0
 37 42  1  0
 36 43  1  0
 35 44  1  0
 13 45  1  0
  5 46  1  0
  4 47  1  0
  3 48  1  0
  1 49  1  0
  1 50  1  0
  1 51  1  0
  2 52  1  6
  3 53  1  6
  4 54  1  1
  5 55  1  1
  6 56  1  6
 14 57  1  0
 21 58  1  0
 22 59  1  0
 24 60  1  0
 25 61  1  0
 27 62  1  0
 27 63  1  0
 27 64  1  0
 28 65  1  0
 28 66  1  0
 29 67  1  0
 31 68  1  0
 31 69  1  0
 31 70  1  0
 32 71  1  0
 32 72  1  0
 32 73  1  0
 34 74  1  1
 35 75  1  6
 36 76  1  6
 37 77  1  6
 38 78  1  1
 40 79  1  0
 40 80  1  0
 41 81  1  0
 42 82  1  0
 43 83  1  0
 44 84  1  0
 45 85  1  0
 46 86  1  0
 47 87  1  0
 48 88  1  0
M  END

