347828895
     RDKit          3D

 79 85  0  0  1  0  0  0  0  0999 V2000
    4.8357    2.6761   -2.4698 C   0  0  0  0  0  0  0  0  0  0  0  0
    4.2825    1.2928   -2.2297 C   0  0  0  0  0  0  0  0  0  0  0  0
    5.3505    0.2760   -2.5825 C   0  0  0  0  0  0  0  0  0  0  0  0
    3.7628    1.1255   -0.8879 N   0  0  0  0  0  0  0  0  0  0  0  0
    4.6243    1.2540    0.2536 C   0  0  0  0  0  0  0  0  0  0  0  0
    5.2400   -0.0409    0.6618 C   0  0  0  0  0  0  0  0  0  0  0  0
    4.7446   -1.2035    0.1328 C   0  0  0  0  0  0  0  0  0  0  0  0
    5.3242   -2.3974    0.5070 C   0  0  0  0  0  0  0  0  0  0  0  0
    6.3785   -2.4679    1.3902 C   0  0  0  0  0  0  0  0  0  0  0  0
    6.8437   -1.2727    1.8974 C   0  0  0  0  0  0  0  0  0  0  0  0
    6.2822   -0.0735    1.5384 C   0  0  0  0  0  0  0  0  0  0  0  0
    2.4026    0.8313   -0.7143 C   0  0  0  0  0  0  0  0  0  0  0  0
    1.6053    0.6982   -1.6992 O   0  0  0  0  0  0  0  0  0  0  0  0
    1.8915    0.6725    0.6908 C   0  0  0  0  0  0  0  0  0  0  0  0
    0.5186    0.3680    0.7530 N   0  0  0  0  0  0  0  0  0  0  0  0
    0.0968   -1.0136    0.7341 C   0  0  0  0  0  0  0  0  0  0  0  0
    1.0061   -1.8222    1.3300 C   0  0  0  0  0  0  0  0  0  0  0  0
    0.7095   -3.1618    1.4702 C   0  0  0  0  0  0  0  0  0  0  0  0
   -0.5019   -3.7064    1.0171 C   0  0  0  0  0  0  0  0  0  0  0  0
   -1.4428   -2.8816    0.4024 C   0  0  0  0  0  0  0  0  0  0  0  0
   -1.1116   -1.5499    0.2733 C   0  0  0  0  0  0  0  0  0  0  0  0
   -2.1073   -0.8326   -0.4245 N   0  0  0  0  0  0  0  0  0  0  0  0
   -2.8248   -1.3449   -1.4029 C   0  0  0  0  0  0  0  0  0  0  0  0
   -3.7330   -0.3673   -1.7003 N   0  0  0  0  0  0  0  0  0  0  0  0
   -3.5206    0.6949   -0.8991 N   0  0  0  0  0  0  0  0  0  0  0  0
   -2.5007    0.4217   -0.0941 C   0  0  0  0  0  0  0  0  0  0  0  0
   -1.9550    1.3988    0.8610 C   0  0  1  0  0  0  0  0  0  0  0  0
   -0.4657    1.4261    0.8390 C   0  0  0  0  0  0  0  0  0  0  0  0
    0.0286    2.5641    0.9059 O   0  0  0  0  0  0  0  0  0  0  0  0
   -2.4319    2.8016    0.5973 C   0  0  0  0  0  0  0  0  0  0  0  0
   -3.8811    2.9811    0.6593 C   0  0  0  0  0  0  0  0  0  0  0  0
   -4.7216    3.1806   -0.4108 C   0  0  0  0  0  0  0  0  0  0  0  0
   -5.9878    3.3178    0.0278 N   0  0  0  0  0  0  0  0  0  0  0  0
   -6.0136    3.2152    1.3665 C   0  0  0  0  0  0  0  0  0  0  0  0
   -4.6892    3.0024    1.7760 C   0  0  0  0  0  0  0  0  0  0  0  0
   -4.4590    2.8634    3.1268 C   0  0  0  0  0  0  0  0  0  0  0  0
   -5.4804    2.9283    4.0444 C   0  0  0  0  0  0  0  0  0  0  0  0
   -6.7857    3.1385    3.6315 C   0  0  0  0  0  0  0  0  0  0  0  0
   -7.0382    3.2805    2.2855 C   0  0  0  0  0  0  0  0  0  0  0  0
   -2.7682   -2.6044   -2.1056 C   0  0  0  0  0  0  0  0  0  0  0  0
   -3.9913   -3.0932   -2.5851 C   0  0  0  0  0  0  0  0  0  0  0  0
   -4.1224   -4.2052   -3.3565 C   0  0  0  0  0  0  0  0  0  0  0  0
   -2.9636   -4.9048   -3.6923 C   0  0  0  0  0  0  0  0  0  0  0  0
   -1.7574   -4.4320   -3.2277 C   0  0  0  0  0  0  0  0  0  0  0  0
   -1.6370   -3.3057   -2.4486 C   0  0  0  0  0  0  0  0  0  0  0  0
    5.7015    2.5936   -3.1675 H   0  0  0  0  0  0  0  0  0  0  0  0
    5.1514    3.2091   -1.5727 H   0  0  0  0  0  0  0  0  0  0  0  0
    4.0962    3.3248   -3.0080 H   0  0  0  0  0  0  0  0  0  0  0  0
    3.4669    1.1514   -2.9956 H   0  0  0  0  0  0  0  0  0  0  0  0
    6.1939    0.2799   -1.8913 H   0  0  0  0  0  0  0  0  0  0  0  0
    4.9044   -0.7022   -2.7830 H   0  0  0  0  0  0  0  0  0  0  0  0
    5.7595    0.6275   -3.5763 H   0  0  0  0  0  0  0  0  0  0  0  0
    5.4296    2.0147    0.0878 H   0  0  0  0  0  0  0  0  0  0  0  0
    4.0501    1.6452    1.1159 H   0  0  0  0  0  0  0  0  0  0  0  0
    3.9072   -1.2085   -0.5703 H   0  0  0  0  0  0  0  0  0  0  0  0
    4.9279   -3.3318    0.0827 H   0  0  0  0  0  0  0  0  0  0  0  0
    6.8258   -3.4347    1.6737 H   0  0  0  0  0  0  0  0  0  0  0  0
    7.6788   -1.3307    2.5971 H   0  0  0  0  0  0  0  0  0  0  0  0
    6.6982    0.8473    1.9791 H   0  0  0  0  0  0  0  0  0  0  0  0
    2.5967    0.2644    1.3926 H   0  0  0  0  0  0  0  0  0  0  0  0
    1.9326    1.7912    1.0060 H   0  0  0  0  0  0  0  0  0  0  0  0
    1.9126   -1.4193    1.6693 H   0  0  0  0  0  0  0  0  0  0  0  0
    1.4254   -3.8098    1.9394 H   0  0  0  0  0  0  0  0  0  0  0  0
   -0.7502   -4.7385    1.1168 H   0  0  0  0  0  0  0  0  0  0  0  0
   -2.4042   -3.2179    0.0880 H   0  0  0  0  0  0  0  0  0  0  0  0
   -2.2508    1.1414    1.9032 H   0  0  0  0  0  0  0  0  0  0  0  0
   -2.0033    3.0924   -0.3979 H   0  0  0  0  0  0  0  0  0  0  0  0
   -1.8848    3.4524    1.3265 H   0  0  0  0  0  0  0  0  0  0  0  0
   -4.4738    3.2349   -1.4599 H   0  0  0  0  0  0  0  0  0  0  0  0
   -6.8313    3.4804   -0.5735 H   0  0  0  0  0  0  0  0  0  0  0  0
   -3.4347    2.6966    3.4731 H   0  0  0  0  0  0  0  0  0  0  0  0
   -5.3367    2.8229    5.1225 H   0  0  0  0  0  0  0  0  0  0  0  0
   -7.6059    3.1917    4.3523 H   0  0  0  0  0  0  0  0  0  0  0  0
   -8.0580    3.4429    1.9710 H   0  0  0  0  0  0  0  0  0  0  0  0
   -4.9249   -2.5666   -2.3418 H   0  0  0  0  0  0  0  0  0  0  0  0
   -5.0997   -4.5658   -3.7186 H   0  0  0  0  0  0  0  0  0  0  0  0
   -3.0857   -5.7832   -4.2998 H   0  0  0  0  0  0  0  0  0  0  0  0
   -0.8750   -4.9908   -3.5046 H   0  0  0  0  0  0  0  0  0  0  0  0
   -0.6762   -2.9329   -2.1303 H   0  0  0  0  0  0  0  0  0  0  0  0
  1  2  1  0
  2  3  1  0
  2  4  1  0
  4  5  1  0
  5  6  1  0
  6  7  2  0
  7  8  1  0
  8  9  2  0
  9 10  1  0
 10 11  2  0
  6 11  1  0
  4 12  1  0
 12 13  2  0
 12 14  1  0
 14 15  1  0
 15 16  1  0
 16 17  2  0
 17 18  1  0
 18 19  2  0
 19 20  1  0
 20 21  2  0
 16 21  1  0
 21 22  1  0
 22 23  1  0
 23 24  2  0
 24 25  1  0
 25 26  2  0
 22 26  1  0
 26 27  1  0
 27 28  1  0
 15 28  1  0
 28 29  2  0
 27 30  1  0
 30 31  1  0
 31 32  2  0
 32 33  1  0
 33 34  1  0
 34 35  2  0
 31 35  1  0
 35 36  1  0
 36 37  2  0
 37 38  1  0
 38 39  2  0
 34 39  1  0
 23 40  1  0
 40 41  2  0
 41 42  1  0
 42 43  2  0
 43 44  1  0
 44 45  2  0
 40 45  1  0
  1 46  1  0
  1 47  1  0
  1 48  1  0
  2 49  1  0
  3 50  1  0
  3 51  1  0
  3 52  1  0
  5 53  1  0
  5 54  1  0
  7 55  1  0
  8 56  1  0
  9 57  1  0
 10 58  1  0
 11 59  1  0
 14 60  1  0
 14 61  1  0
 17 62  1  0
 18 63  1  0
 19 64  1  0
 20 65  1  0
 27 66  1  1
 30 67  1  0
 30 68  1  0
 32 69  1  0
 33 70  1  0
 36 71  1  0
 37 72  1  0
 38 73  1  0
 39 74  1  0
 41 75  1  0
 42 76  1  0
 43 77  1  0
 44 78  1  0
 45 79  1  0
M  END

