347828655
     RDKit          3D

 83 88  0  0  1  0  0  0  0  0999 V2000
   -6.1542    4.9814   -0.8288 C   0  0  0  0  0  0  0  0  0  0  0  0
   -2.4480    1.2333    3.1983 C   0  0  0  0  0  0  0  0  0  0  0  0
    9.8528    0.3640   -0.0616 C   0  0  0  0  0  0  0  0  0  0  0  0
    9.6882    0.2091    1.3203 C   0  0  0  0  0  0  0  0  0  0  0  0
    8.7768    0.1676   -0.9166 C   0  0  0  0  0  0  0  0  0  0  0  0
    8.4332   -0.1358    1.7392 C   0  0  0  0  0  0  0  0  0  0  0  0
   -5.9397    1.4965    1.3149 C   0  0  0  0  0  0  0  0  0  0  0  0
   -0.2002    1.3345    0.9320 C   0  0  0  0  0  0  0  0  0  0  0  0
    1.5392   -1.5686   -1.9557 C   0  0  0  0  0  0  0  0  0  0  0  0
    1.0574   -3.1320    0.0105 C   0  0  0  0  0  0  0  0  0  0  0  0
    0.9670   -4.8850   -3.0648 C   0  0  0  0  0  0  0  0  0  0  0  0
   -6.1282    3.6911   -0.0753 C   0  0  1  0  0  0  0  0  0  0  0  0
   -2.4438    0.3233    2.0007 C   0  0  1  0  0  0  0  0  0  0  0  0
    7.5114   -0.1819   -0.4940 C   0  0  0  0  0  0  0  0  0  0  0  0
    7.3708   -0.3301    0.8987 C   0  0  0  0  0  0  0  0  0  0  0  0
    2.7394   -1.2643   -1.1720 C   0  0  0  0  0  0  0  0  0  0  0  0
   -7.3217    1.7102    0.7857 C   0  0  1  0  0  0  0  0  0  0  0  0
   -1.4367    1.7853    0.2520 C   0  0  1  0  0  0  0  0  0  0  0  0
    1.2468   -1.7994    0.7343 C   0  0  1  0  0  0  0  0  0  0  0  0
    1.7173   -3.9496   -2.1919 C   0  0  0  0  0  0  0  0  0  0  0  0
   -4.8720    1.8500    0.3683 C   0  0  1  0  0  0  0  0  0  0  0  0
   -0.2528   -0.0917    1.3150 C   0  0  1  0  0  0  0  0  0  0  0  0
    2.6083   -1.4032    0.2016 C   0  0  0  0  0  0  0  0  0  0  0  0
    5.0769   -0.7382   -0.9156 C   0  0  0  0  0  0  0  0  0  0  0  0
    4.9426   -0.8826    0.4447 C   0  0  0  0  0  0  0  0  0  0  0  0
   -7.4784    2.9824   -0.0289 C   0  0  2  0  0  0  0  0  0  0  0  0
    6.3961   -0.3768   -1.4189 C   0  0  0  0  0  0  0  0  0  0  0  0
    6.0448   -0.6928    1.3720 C   0  0  0  0  0  0  0  0  0  0  0  0
    3.9571   -0.9336   -1.7297 C   0  0  0  0  0  0  0  0  0  0  0  0
    3.6888   -1.2181    0.9881 C   0  0  0  0  0  0  0  0  0  0  0  0
   -2.6858    1.0998    0.7140 C   0  0  2  0  0  0  0  0  0  0  0  0
    0.9516   -2.8809   -1.4675 C   0  0  2  0  0  0  0  0  0  0  0  0
   -7.7045    0.5470    0.0162 N   0  0  0  0  0  0  0  0  0  0  0  0
    1.7988   -5.8274   -3.6506 O   0  0  0  0  0  0  0  0  0  0  0  0
   -1.5384    3.1896    0.5501 O   0  0  0  0  0  0  0  0  0  0  0  0
    2.9300   -4.0562   -2.0730 O   0  0  0  0  0  0  0  0  0  0  0  0
   -7.8274    2.6245   -1.3126 O   0  0  0  0  0  0  0  0  0  0  0  0
    6.5426   -0.2385   -2.6533 O   0  0  0  0  0  0  0  0  0  0  0  0
    5.8472   -0.8465    2.6313 O   0  0  0  0  0  0  0  0  0  0  0  0
    4.1422   -0.7789   -3.0920 O   0  0  0  0  0  0  0  0  0  0  0  0
    3.5722   -1.3575    2.3691 O   0  0  0  0  0  0  0  0  0  0  0  0
   -0.4067   -2.9883   -1.8082 O   0  0  0  0  0  0  0  0  0  0  0  0
   -5.1635    2.8291   -0.5215 O   0  0  0  0  0  0  0  0  0  0  0  0
   -1.3654   -0.4550    1.9693 O   0  0  0  0  0  0  0  0  0  0  0  0
    0.2385   -0.9746    0.3539 O   0  0  0  0  0  0  0  0  0  0  0  0
   -3.6318    2.0346    0.9984 O   0  0  0  0  0  0  0  0  0  0  0  0
   -6.8081    5.7508   -0.3735 H   0  0  0  0  0  0  0  0  0  0  0  0
   -5.1253    5.4352   -0.8350 H   0  0  0  0  0  0  0  0  0  0  0  0
   -6.5288    4.8730   -1.8776 H   0  0  0  0  0  0  0  0  0  0  0  0
   -1.4577    1.5168    3.5756 H   0  0  0  0  0  0  0  0  0  0  0  0
   -2.9776    0.7886    4.0773 H   0  0  0  0  0  0  0  0  0  0  0  0
   -2.9597    2.2091    2.9319 H   0  0  0  0  0  0  0  0  0  0  0  0
   10.8358    0.6342   -0.4131 H   0  0  0  0  0  0  0  0  0  0  0  0
   10.5201    0.3642    1.9914 H   0  0  0  0  0  0  0  0  0  0  0  0
    8.9034    0.2957   -2.0058 H   0  0  0  0  0  0  0  0  0  0  0  0
    8.2602   -0.2632    2.8242 H   0  0  0  0  0  0  0  0  0  0  0  0
   -5.8753    2.0903    2.2853 H   0  0  0  0  0  0  0  0  0  0  0  0
   -5.9109    0.3906    1.5922 H   0  0  0  0  0  0  0  0  0  0  0  0
    0.6454    1.4817    0.1621 H   0  0  0  0  0  0  0  0  0  0  0  0
    0.0035    2.0113    1.8052 H   0  0  0  0  0  0  0  0  0  0  0  0
    1.7519   -1.6349   -3.0523 H   0  0  0  0  0  0  0  0  0  0  0  0
    0.8048   -0.7583   -1.8276 H   0  0  0  0  0  0  0  0  0  0  0  0
    0.1818   -3.7059    0.3553 H   0  0  0  0  0  0  0  0  0  0  0  0
    1.9980   -3.7057    0.1929 H   0  0  0  0  0  0  0  0  0  0  0  0
    0.1625   -5.3461   -2.4303 H   0  0  0  0  0  0  0  0  0  0  0  0
    0.4152   -4.3166   -3.8691 H   0  0  0  0  0  0  0  0  0  0  0  0
   -5.8850    3.9488    0.9869 H   0  0  0  0  0  0  0  0  0  0  0  0
   -3.3431   -0.3527    2.1289 H   0  0  0  0  0  0  0  0  0  0  0  0
   -8.0613    1.8189    1.6216 H   0  0  0  0  0  0  0  0  0  0  0  0
   -1.3059    1.7586   -0.8503 H   0  0  0  0  0  0  0  0  0  0  0  0
    1.3031   -1.8532    1.8100 H   0  0  0  0  0  0  0  0  0  0  0  0
   -4.6857    0.9063   -0.2538 H   0  0  0  0  0  0  0  0  0  0  0  0
    0.5640   -0.2166    2.1630 H   0  0  0  0  0  0  0  0  0  0  0  0
   -8.2076    3.6631    0.4158 H   0  0  0  0  0  0  0  0  0  0  0  0
   -2.9858    0.3480   -0.0327 H   0  0  0  0  0  0  0  0  0  0  0  0
   -7.2102    0.5306   -0.9144 H   0  0  0  0  0  0  0  0  0  0  0  0
   -8.7301    0.4460   -0.0569 H   0  0  0  0  0  0  0  0  0  0  0  0
    2.7399   -5.4608   -3.5907 H   0  0  0  0  0  0  0  0  0  0  0  0
   -2.4382    3.5252    0.3881 H   0  0  0  0  0  0  0  0  0  0  0  0
   -8.8257    2.6993   -1.3599 H   0  0  0  0  0  0  0  0  0  0  0  0
    3.4668   -0.8791   -3.8104 H   0  0  0  0  0  0  0  0  0  0  0  0
    2.7305   -1.3418    2.8975 H   0  0  0  0  0  0  0  0  0  0  0  0
   -0.6034   -2.6056   -2.6977 H   0  0  0  0  0  0  0  0  0  0  0  0
  3  4  2  0
  3  5  1  0
  4  6  1  0
 12  1  1  0
 13  2  1  0
  5 14  2  0
  6 15  2  0
 14 15  1  0
  9 16  1  0
  7 17  1  0
  8 18  1  0
 10 19  1  0
 11 20  1  0
  7 21  1  0
  8 22  1  0
 16 23  1  0
 19 23  1  0
 24 25  2  0
 12 26  1  0
 17 26  1  0
 14 27  1  0
 24 27  1  0
 15 28  1  0
 25 28  1  0
 16 29  2  0
 24 29  1  0
 23 30  2  0
 25 30  1  0
 13 31  1  0
 18 31  1  0
  9 32  1  0
 10 32  1  0
 32 20  1  0
 17 33  1  0
 11 34  1  0
 18 35  1  0
 20 36  2  0
 26 37  1  0
 27 38  2  0
 28 39  2  0
 29 40  1  0
 30 41  1  0
 32 42  1  6
 12 43  1  0
 21 43  1  0
 13 44  1  0
 22 44  1  0
 19 45  1  0
 22 45  1  0
 21 46  1  0
 31 46  1  0
  1 47  1  0
  1 48  1  0
  1 49  1  0
  2 50  1  0
  2 51  1  0
  2 52  1  0
  3 53  1  0
  4 54  1  0
  5 55  1  0
  6 56  1  0
  7 57  1  0
  7 58  1  0
  8 59  1  0
  8 60  1  0
  9 61  1  0
  9 62  1  0
 10 63  1  0
 10 64  1  0
 11 65  1  0
 11 66  1  0
 12 67  1  1
 13 68  1  1
 17 69  1  1
 18 70  1  6
 19 71  1  1
 21 72  1  6
 22 73  1  1
 26 74  1  1
 31 75  1  6
 33 76  1  0
 33 77  1  0
 34 78  1  0
 35 79  1  0
 37 80  1  0
 40 81  1  0
 41 82  1  0
 42 83  1  0
M  END

