347828460
     RDKit          3D

 30 31  0  0  0  0  0  0  0  0999 V2000
    0.0954   -0.2823   -0.0374 C   0  0  0  0  0  0  0  0  0  0  0  0
    0.8986    0.8016    0.6021 C   0  0  0  0  0  0  0  0  0  0  0  0
   -1.8952   -1.5873    0.1186 C   0  0  0  0  0  0  0  0  0  0  0  0
   -2.0243    0.7994    0.1825 C   0  0  0  0  0  0  0  0  0  0  0  0
   -3.2780   -1.4428   -0.3710 C   0  0  0  0  0  0  0  0  0  0  0  0
   -3.4237    0.6274    0.6548 C   0  0  0  0  0  0  0  0  0  0  0  0
    4.3725    0.5760   -0.5048 C   0  0  0  0  0  0  0  0  0  0  0  0
    2.5867    1.6883   -1.0302 C   0  0  0  0  0  0  0  0  0  0  0  0
    3.3165    0.1924    0.3307 C   0  0  0  0  0  0  0  0  0  0  0  0
    3.8702    1.4957   -1.3198 N   0  0  0  0  0  0  0  0  0  0  0  0
   -1.2270   -0.3668    0.5476 N   0  0  0  0  0  0  0  0  0  0  0  0
    2.2289    0.8930   -0.0142 N   0  0  0  0  0  0  0  0  0  0  0  0
    3.4609   -0.8008    1.3286 N   0  0  0  0  0  4  0  0  0  0  0  0
    4.6490   -1.4368    1.4932 O   0  0  0  0  0  1  0  0  0  0  0  0
    2.4976   -1.0747    2.0475 O   0  0  0  0  0  0  0  0  0  0  0  0
   -4.0664   -0.4834    0.1776 O   0  0  0  0  0  0  0  0  0  0  0  0
    0.6027   -1.2459    0.1274 H   0  0  0  0  0  0  0  0  0  0  0  0
    0.0557   -0.0857   -1.1263 H   0  0  0  0  0  0  0  0  0  0  0  0
    0.4004    1.7688    0.3729 H   0  0  0  0  0  0  0  0  0  0  0  0
    0.9482    0.6902    1.6926 H   0  0  0  0  0  0  0  0  0  0  0  0
   -1.2871   -2.1388   -0.6278 H   0  0  0  0  0  0  0  0  0  0  0  0
   -1.9051   -2.2372    1.0394 H   0  0  0  0  0  0  0  0  0  0  0  0
   -1.9539    1.0120   -0.9038 H   0  0  0  0  0  0  0  0  0  0  0  0
   -1.5906    1.6691    0.7106 H   0  0  0  0  0  0  0  0  0  0  0  0
   -3.8048   -2.4333   -0.1424 H   0  0  0  0  0  0  0  0  0  0  0  0
   -3.3577   -1.3821   -1.4771 H   0  0  0  0  0  0  0  0  0  0  0  0
   -4.0113    1.5104    0.2553 H   0  0  0  0  0  0  0  0  0  0  0  0
   -3.4738    0.7017    1.7405 H   0  0  0  0  0  0  0  0  0  0  0  0
    5.3942    0.1993   -0.4886 H   0  0  0  0  0  0  0  0  0  0  0  0
    1.9211    2.3725   -1.5255 H   0  0  0  0  0  0  0  0  0  0  0  0
  1  2  1  0
  3  5  1  0
  4  6  1  0
  7  9  2  0
  7 10  1  0
  8 10  2  0
  1 11  1  0
  3 11  1  0
  4 11  1  0
  2 12  1  0
  8 12  1  0
  9 12  1  0
  9 13  1  0
 13 14  1  0
 13 15  2  0
  5 16  1  0
  6 16  1  0
  1 17  1  0
  1 18  1  0
  2 19  1  0
  2 20  1  0
  3 21  1  0
  3 22  1  0
  4 23  1  0
  4 24  1  0
  5 25  1  0
  5 26  1  0
  6 27  1  0
  6 28  1  0
  7 29  1  0
  8 30  1  0
M  CHG  2  13   1  14  -1
M  END

