347828075
     RDKit          3D

 19 19  0  0  0  0  0  0  0  0999 V2000
    0.9894    0.3647   -0.0908 C   0  0  0  0  0  0  0  0  0  0  0  0
   -0.0476   -0.5246    0.1330 C   0  0  0  0  0  0  0  0  0  0  0  0
    0.7162    1.6771   -0.4008 C   0  0  0  0  0  0  0  0  0  0  0  0
    2.3742   -0.0769   -0.0010 C   0  0  0  0  0  0  0  0  0  0  0  0
   -1.3328   -0.1344    0.0543 N   0  0  0  0  0  4  0  0  0  0  0  0
   -0.6048    2.0834   -0.4829 C   0  0  0  0  0  0  0  0  0  0  0  0
    2.6778   -1.4239    0.3170 N   0  0  0  0  0  0  0  0  0  0  0  0
    3.3154    0.7234   -0.2026 O   0  0  0  0  0  0  0  0  0  0  0  0
   -1.5928    1.1483   -0.2487 C   0  0  0  0  0  0  0  0  0  0  0  0
   -2.3936   -1.1061    0.2980 C   0  0  0  0  0  0  0  0  0  0  0  0
    0.1958   -1.5686    0.3792 H   0  0  0  0  0  0  0  0  0  0  0  0
    1.5463    2.3515   -0.5710 H   0  0  0  0  0  0  0  0  0  0  0  0
   -0.8293    3.1280   -0.7295 H   0  0  0  0  0  0  0  0  0  0  0  0
    3.5173   -1.6654    0.9195 H   0  0  0  0  0  0  0  0  0  0  0  0
    2.0965   -2.2181   -0.0238 H   0  0  0  0  0  0  0  0  0  0  0  0
   -2.6367    1.4456   -0.3079 H   0  0  0  0  0  0  0  0  0  0  0  0
   -3.3647   -0.7504   -0.0903 H   0  0  0  0  0  0  0  0  0  0  0  0
   -2.4582   -1.4123    1.3431 H   0  0  0  0  0  0  0  0  0  0  0  0
   -2.1683   -2.0415   -0.2946 H   0  0  0  0  0  0  0  0  0  0  0  0
  1  2  2  0
  1  3  1  0
  1  4  1  0
  2  5  1  0
  3  6  2  0
  4  7  1  0
  4  8  2  0
  5  9  2  0
  5 10  1  0
  6  9  1  0
  2 11  1  0
  3 12  1  0
  6 13  1  0
  7 14  1  0
  7 15  1  0
  9 16  1  0
 10 17  1  0
 10 18  1  0
 10 19  1  0
M  CHG  1   5   1
M  END

