347828297
     RDKit          3D

 58 61  0  0  0  0  0  0  0  0999 V2000
    6.7808    4.6822    0.2471 C   0  0  0  0  0  0  0  0  0  0  0  0
    6.6655    3.6549   -0.7064 O   0  0  0  0  0  0  0  0  0  0  0  0
    5.6336    2.7196   -0.5552 C   0  0  0  0  0  0  0  0  0  0  0  0
    5.4885    1.6997   -1.4681 C   0  0  0  0  0  0  0  0  0  0  0  0
    4.4762    0.7770   -1.3253 C   0  0  0  0  0  0  0  0  0  0  0  0
    3.5910    0.8658   -0.2584 C   0  0  0  0  0  0  0  0  0  0  0  0
    3.7766    1.9004    0.6256 C   0  0  0  0  0  0  0  0  0  0  0  0
    4.7702    2.7930    0.4716 N   0  0  0  0  0  0  0  0  0  0  0  0
    2.5284   -0.1170   -0.1229 C   0  0  0  0  0  0  0  0  0  0  0  0
    2.7343   -1.4651   -0.2811 C   0  0  0  0  0  0  0  0  0  0  0  0
    1.6829   -2.3406   -0.1384 C   0  0  0  0  0  0  0  0  0  0  0  0
    1.8866   -3.6919   -0.2960 C   0  0  0  0  0  0  0  0  0  0  0  0
    3.2183   -4.2691   -0.6214 C   0  0  0  0  0  0  0  0  0  0  0  0
    0.8302   -4.5055   -0.1465 N   0  0  0  0  0  0  0  0  0  0  0  0
   -0.4071   -4.0176    0.1517 C   0  0  0  0  0  0  0  0  0  0  0  0
   -1.4735   -4.9500    0.2932 N   0  0  0  0  0  0  0  0  0  0  0  0
   -0.5770   -2.7009    0.2993 N   0  0  0  0  0  0  0  0  0  0  0  0
    0.4434   -1.8349    0.1617 C   0  0  0  0  0  0  0  0  0  0  0  0
    0.2263   -0.4870    0.3222 N   0  0  0  0  0  0  0  0  0  0  0  0
   -1.1168   -0.1076    0.6327 C   0  0  2  0  0  0  0  0  0  0  0  0
   -2.0170   -0.6905   -0.4407 C   0  0  0  0  0  0  0  0  0  0  0  0
   -2.9083    0.3413   -1.0764 C   0  0  0  0  0  0  0  0  0  0  0  0
   -3.7458    1.0992   -0.0875 C   0  0  2  0  0  0  0  0  0  0  0  0
   -2.8863    1.4708    1.0899 C   0  0  0  0  0  0  0  0  0  0  0  0
   -1.3933    1.3379    0.7320 C   0  0  0  0  0  0  0  0  0  0  0  0
   -4.8667    0.4192    0.3219 O   0  0  0  0  0  0  0  0  0  0  0  0
   -6.0438    1.0993    0.0049 C   0  0  0  0  0  0  0  0  0  0  0  0
   -7.2261    0.3069    0.4770 C   0  0  0  0  0  0  0  0  0  0  0  0
   -8.4117    0.9617    0.1740 O   0  0  0  0  0  0  0  0  0  0  0  0
    1.2649    0.3283    0.1770 C   0  0  0  0  0  0  0  0  0  0  0  0
    1.0582    1.5797    0.3273 O   0  0  0  0  0  0  0  0  0  0  0  0
    6.6588    4.2337    1.2672 H   0  0  0  0  0  0  0  0  0  0  0  0
    5.9981    5.4364    0.0283 H   0  0  0  0  0  0  0  0  0  0  0  0
    7.7707    5.1778    0.1343 H   0  0  0  0  0  0  0  0  0  0  0  0
    6.1864    1.6282   -2.3108 H   0  0  0  0  0  0  0  0  0  0  0  0
    4.3820   -0.0168   -2.0562 H   0  0  0  0  0  0  0  0  0  0  0  0
    3.0667    1.9531    1.4620 H   0  0  0  0  0  0  0  0  0  0  0  0
    3.7151   -1.8645   -0.5186 H   0  0  0  0  0  0  0  0  0  0  0  0
    3.8927   -4.2925    0.2664 H   0  0  0  0  0  0  0  0  0  0  0  0
    3.6894   -3.7494   -1.4915 H   0  0  0  0  0  0  0  0  0  0  0  0
    3.0891   -5.3244   -0.9392 H   0  0  0  0  0  0  0  0  0  0  0  0
   -1.6326   -5.4633    1.1779 H   0  0  0  0  0  0  0  0  0  0  0  0
   -2.1020   -5.1137   -0.5138 H   0  0  0  0  0  0  0  0  0  0  0  0
   -1.3662   -0.5737    1.6226 H   0  0  0  0  0  0  0  0  0  0  0  0
   -2.6164   -1.5194    0.0034 H   0  0  0  0  0  0  0  0  0  0  0  0
   -1.4411   -1.1428   -1.2762 H   0  0  0  0  0  0  0  0  0  0  0  0
   -2.3022    0.9990   -1.7222 H   0  0  0  0  0  0  0  0  0  0  0  0
   -3.6048   -0.2053   -1.7462 H   0  0  0  0  0  0  0  0  0  0  0  0
   -4.0761    2.0385   -0.5774 H   0  0  0  0  0  0  0  0  0  0  0  0
   -3.0750    0.8813    1.9905 H   0  0  0  0  0  0  0  0  0  0  0  0
   -3.0297    2.5386    1.3553 H   0  0  0  0  0  0  0  0  0  0  0  0
   -1.1808    1.9092   -0.1939 H   0  0  0  0  0  0  0  0  0  0  0  0
   -0.8893    1.8702    1.5637 H   0  0  0  0  0  0  0  0  0  0  0  0
   -6.0794    1.2774   -1.0897 H   0  0  0  0  0  0  0  0  0  0  0  0
   -6.0122    2.1028    0.5032 H   0  0  0  0  0  0  0  0  0  0  0  0
   -7.1647    0.1998    1.5717 H   0  0  0  0  0  0  0  0  0  0  0  0
   -7.1824   -0.6834   -0.0446 H   0  0  0  0  0  0  0  0  0  0  0  0
   -8.6768    0.8441   -0.7774 H   0  0  0  0  0  0  0  0  0  0  0  0
  1  2  1  0
  2  3  1  0
  3  4  2  0
  4  5  1  0
  5  6  2  0
  6  7  1  0
  7  8  2  0
  3  8  1  0
  6  9  1  0
  9 10  2  0
 10 11  1  0
 11 12  2  0
 12 13  1  0
 12 14  1  0
 14 15  2  0
 15 16  1  0
 15 17  1  0
 17 18  2  0
 11 18  1  0
 18 19  1  0
 20 19  1  0
 20 21  1  0
 21 22  1  0
 22 23  1  0
 23 24  1  0
 24 25  1  0
 20 25  1  0
 23 26  1  0
 26 27  1  0
 27 28  1  0
 28 29  1  0
 19 30  1  0
  9 30  1  0
 30 31  2  0
  1 32  1  0
  1 33  1  0
  1 34  1  0
  4 35  1  0
  5 36  1  0
  7 37  1  0
 10 38  1  0
 13 39  1  0
 13 40  1  0
 13 41  1  0
 16 42  1  0
 16 43  1  0
 20 44  1  1
 21 45  1  0
 21 46  1  0
 22 47  1  0
 22 48  1  0
 23 49  1  6
 24 50  1  0
 24 51  1  0
 25 52  1  0
 25 53  1  0
 27 54  1  0
 27 55  1  0
 28 56  1  0
 28 57  1  0
 29 58  1  0
M  END

