347829087
     RDKit          3D

 15 15  0  0  0  0  0  0  0  0999 V2000
    2.6539   -0.7964    0.1122 O   0  0  0  0  0  0  0  0  0  0  0  0
    1.3231   -0.4391   -0.0336 C   0  0  0  0  0  0  0  0  0  0  0  0
    1.0207    0.8984   -0.1242 C   0  0  0  0  0  0  0  0  0  0  0  0
    0.2903   -1.3522   -0.0922 C   0  0  0  0  0  0  0  0  0  0  0  0
   -1.0264   -0.9597   -0.2382 C   0  0  0  0  0  0  0  0  0  0  0  0
   -1.2836    0.3880   -0.3250 C   0  0  0  0  0  0  0  0  0  0  0  0
   -0.2834    1.3327   -0.2710 C   0  0  0  0  0  0  0  0  0  0  0  0
   -0.5308    2.7032   -0.3578 O   0  0  0  0  0  0  0  0  0  0  0  0
   -2.0509   -1.9226   -0.2938 O   0  0  0  0  0  0  0  0  0  0  0  0
    3.0188   -0.8770    1.0417 H   0  0  0  0  0  0  0  0  0  0  0  0
    1.7991    1.6602   -0.0835 H   0  0  0  0  0  0  0  0  0  0  0  0
    0.5222   -2.4097   -0.0212 H   0  0  0  0  0  0  0  0  0  0  0  0
   -2.3098    0.7297   -0.4404 H   0  0  0  0  0  0  0  0  0  0  0  0
   -0.7002    3.2064    0.4961 H   0  0  0  0  0  0  0  0  0  0  0  0
   -2.4430   -2.1620    0.6308 H   0  0  0  0  0  0  0  0  0  0  0  0
  1  2  1  0
  2  3  2  0
  2  4  1  0
  3  7  1  0
  4  5  2  0
  5  6  1  0
  5  9  1  0
  6  7  2  0
  7  8  1  0
  1 10  1  0
  3 11  1  0
  4 12  1  0
  6 13  1  0
  8 14  1  0
  9 15  1  0
M  END

