347828929
     RDKit          3D

 44 46  0  0  0  0  0  0  0  0999 V2000
    3.8477    0.6640    1.7763 C   0  0  0  0  0  0  0  0  0  0  0  0
    3.5538    1.5889    0.6148 C   0  0  0  0  0  0  0  0  0  0  0  0
    4.4777    1.1326   -0.5230 C   0  0  0  0  0  0  0  0  0  0  0  0
    3.9106    2.9842    0.9061 C   0  0  0  0  0  0  0  0  0  0  0  0
    3.0535    3.8754    0.7792 O   0  0  0  0  0  0  0  0  0  0  0  0
    5.1817    3.3054    1.3161 O   0  0  0  0  0  0  0  0  0  0  0  0
    2.2168    1.5015    0.2174 O   0  0  0  0  0  0  0  0  0  0  0  0
    1.9685    0.2145   -0.1615 C   0  0  0  0  0  0  0  0  0  0  0  0
    0.5982   -0.0476   -0.6102 C   0  0  0  0  0  0  0  0  0  0  0  0
    0.1889   -1.3084   -1.0281 C   0  0  0  0  0  0  0  0  0  0  0  0
    0.8527   -2.5283   -1.1356 C   0  0  0  0  0  0  0  0  0  0  0  0
    0.2072   -3.6538   -1.5893 C   0  0  0  0  0  0  0  0  0  0  0  0
   -1.1167   -3.5707   -1.9424 C   0  0  0  0  0  0  0  0  0  0  0  0
   -1.7844   -2.3734   -1.8414 C   0  0  0  0  0  0  0  0  0  0  0  0
   -1.1262   -1.2366   -1.3812 C   0  0  0  0  0  0  0  0  0  0  0  0
   -1.5056    0.0371   -1.1821 N   0  0  0  0  0  0  0  0  0  0  0  0
   -0.4722    0.7390   -0.7227 N   0  0  0  0  0  0  0  0  0  0  0  0
   -2.8364    0.5487   -1.4271 C   0  0  0  0  0  0  0  0  0  0  0  0
   -3.6407    0.4252   -0.1870 C   0  0  0  0  0  0  0  0  0  0  0  0
   -3.6176    1.4656    0.7479 C   0  0  0  0  0  0  0  0  0  0  0  0
   -4.3553    1.3804    1.9071 C   0  0  0  0  0  0  0  0  0  0  0  0
   -5.1444    0.2728    2.1959 C   0  0  0  0  0  0  0  0  0  0  0  0
   -5.1675   -0.7500    1.2775 C   0  0  0  0  0  0  0  0  0  0  0  0
   -4.4202   -0.6695    0.0976 C   0  0  0  0  0  0  0  0  0  0  0  0
    4.6563    1.1101    2.3804 H   0  0  0  0  0  0  0  0  0  0  0  0
    2.9219    0.5662    2.3868 H   0  0  0  0  0  0  0  0  0  0  0  0
    4.1335   -0.3260    1.3995 H   0  0  0  0  0  0  0  0  0  0  0  0
    4.0782    1.4478   -1.4957 H   0  0  0  0  0  0  0  0  0  0  0  0
    4.6630    0.0377   -0.4517 H   0  0  0  0  0  0  0  0  0  0  0  0
    5.4637    1.6267   -0.3984 H   0  0  0  0  0  0  0  0  0  0  0  0
    5.6029    2.9163    2.1469 H   0  0  0  0  0  0  0  0  0  0  0  0
    2.1573   -0.4673    0.7185 H   0  0  0  0  0  0  0  0  0  0  0  0
    2.6532   -0.0787   -0.9988 H   0  0  0  0  0  0  0  0  0  0  0  0
    1.9135   -2.5860   -0.8506 H   0  0  0  0  0  0  0  0  0  0  0  0
    0.7751   -4.5911   -1.6555 H   0  0  0  0  0  0  0  0  0  0  0  0
   -1.6118   -4.4852   -2.3028 H   0  0  0  0  0  0  0  0  0  0  0  0
   -2.8235   -2.3161   -2.1232 H   0  0  0  0  0  0  0  0  0  0  0  0
   -2.8193    1.5831   -1.8254 H   0  0  0  0  0  0  0  0  0  0  0  0
   -3.3366   -0.0728   -2.1952 H   0  0  0  0  0  0  0  0  0  0  0  0
   -3.0008    2.3188    0.5104 H   0  0  0  0  0  0  0  0  0  0  0  0
   -4.3393    2.1860    2.6341 H   0  0  0  0  0  0  0  0  0  0  0  0
   -5.7116    0.2377    3.1156 H   0  0  0  0  0  0  0  0  0  0  0  0
   -5.7843   -1.6146    1.5042 H   0  0  0  0  0  0  0  0  0  0  0  0
   -4.4615   -1.4897   -0.6038 H   0  0  0  0  0  0  0  0  0  0  0  0
  1  2  1  0
  2  3  1  0
  2  4  1  0
  4  5  2  0
  4  6  1  0
  2  7  1  0
  7  8  1  0
  8  9  1  0
  9 10  1  0
 10 11  2  0
 11 12  1  0
 12 13  2  0
 13 14  1  0
 14 15  2  0
 10 15  1  0
 15 16  1  0
 16 17  1  0
  9 17  2  0
 16 18  1  0
 18 19  1  0
 19 20  2  0
 20 21  1  0
 21 22  2  0
 22 23  1  0
 23 24  2  0
 19 24  1  0
  1 25  1  0
  1 26  1  0
  1 27  1  0
  3 28  1  0
  3 29  1  0
  3 30  1  0
  6 31  1  0
  8 32  1  0
  8 33  1  0
 11 34  1  0
 12 35  1  0
 13 36  1  0
 14 37  1  0
 18 38  1  0
 18 39  1  0
 20 40  1  0
 21 41  1  0
 22 42  1  0
 23 43  1  0
 24 44  1  0
M  END

