347829278
     RDKit          3D

 29 31  0  0  0  0  0  0  0  0999 V2000
   -3.8697    1.6894    0.5290 C   0  0  0  0  0  0  0  0  0  0  0  0
   -2.5519    2.0644    0.4229 C   0  0  0  0  0  0  0  0  0  0  0  0
   -4.2011    0.3755    0.4880 C   0  0  0  0  0  0  0  0  0  0  0  0
    2.1844    0.8443   -0.1013 C   0  0  0  0  0  0  0  0  0  0  0  0
    2.8707   -1.3788   -0.2908 C   0  0  0  0  0  0  0  0  0  0  0  0
    3.1876   -0.0711   -0.2487 C   0  0  0  0  0  0  0  0  0  0  0  0
   -1.5739    1.1061    0.2754 C   0  0  0  0  0  0  0  0  0  0  0  0
    0.8642    0.4866    0.0061 C   0  0  0  0  0  0  0  0  0  0  0  0
   -3.2349   -0.6430    0.3384 C   0  0  0  0  0  0  0  0  0  0  0  0
    1.5471   -1.8108   -0.1872 C   0  0  0  0  0  0  0  0  0  0  0  0
   -1.9306   -0.2261    0.2359 C   0  0  0  0  0  0  0  0  0  0  0  0
    0.5417   -0.8562   -0.0374 C   0  0  0  0  0  0  0  0  0  0  0  0
   -0.1765    1.4909    0.1621 C   0  0  0  0  0  0  0  0  0  0  0  0
   -0.8760   -1.2171    0.0792 C   0  0  0  0  0  0  0  0  0  0  0  0
    4.5938    0.3713   -0.3597 C   0  0  0  0  0  0  0  0  0  0  0  0
   -3.6024   -1.9355    0.3021 O   0  0  0  0  0  0  0  0  0  0  0  0
    1.2943   -3.1359   -0.2364 O   0  0  0  0  0  0  0  0  0  0  0  0
    0.1160    2.7158    0.2019 O   0  0  0  0  0  0  0  0  0  0  0  0
   -1.1684   -2.4337    0.0399 O   0  0  0  0  0  0  0  0  0  0  0  0
    5.5051   -0.4844   -0.4950 O   0  0  0  0  0  0  0  0  0  0  0  0
    4.9323    1.7145   -0.3176 O   0  0  0  0  0  0  0  0  0  0  0  0
   -4.6093    2.4827    0.6444 H   0  0  0  0  0  0  0  0  0  0  0  0
   -2.2357    3.0971    0.4497 H   0  0  0  0  0  0  0  0  0  0  0  0
   -5.2379    0.0960    0.5725 H   0  0  0  0  0  0  0  0  0  0  0  0
    2.4378    1.9028   -0.0669 H   0  0  0  0  0  0  0  0  0  0  0  0
    3.6363   -2.1446   -0.4071 H   0  0  0  0  0  0  0  0  0  0  0  0
   -3.2951   -2.8213    0.2233 H   0  0  0  0  0  0  0  0  0  0  0  0
    0.5191   -3.7031   -0.1932 H   0  0  0  0  0  0  0  0  0  0  0  0
    4.3327    2.4243   -0.6879 H   0  0  0  0  0  0  0  0  0  0  0  0
  1  2  2  0
  1  3  1  0
  4  6  1  0
  5  6  2  0
  2  7  1  0
  4  8  2  0
  3  9  2  0
  5 10  1  0
  7 11  2  0
  9 11  1  0
  8 12  1  0
 10 12  2  0
  7 13  1  0
  8 13  1  0
 11 14  1  0
 12 14  1  0
  6 15  1  0
  9 16  1  0
 10 17  1  0
 13 18  2  0
 14 19  2  0
 15 20  2  0
 15 21  1  0
  1 22  1  0
  2 23  1  0
  3 24  1  0
  4 25  1  0
  5 26  1  0
 16 27  1  0
 17 28  1  0
 21 29  1  0
M  END

