347827979
     RDKit          3D

 51 55  0  0  1  0  0  0  0  0999 V2000
    1.2733   -1.1090   -0.0466 C   0  0  0  0  0  0  0  0  0  0  0  0
    2.5237   -0.5900    0.1219 C   0  0  0  0  0  0  0  0  0  0  0  0
    3.1787   -0.6432    1.3343 C   0  0  0  0  0  0  0  0  0  0  0  0
    4.4232   -0.0314    1.1713 O   0  0  0  0  0  0  0  0  0  0  0  0
    4.2422    0.9415    0.1471 C   0  0  2  0  0  0  0  0  0  0  0  0
    3.4428    0.1107   -0.8498 C   0  0  0  0  0  0  0  0  0  0  0  0
    5.4613    1.4726   -0.4319 C   0  0  0  0  0  0  0  0  0  0  0  0
    5.7714    1.2929   -1.6941 C   0  0  0  0  0  0  0  0  0  0  0  0
    6.3914    2.2657    0.4277 C   0  0  0  0  0  0  0  0  0  0  0  0
    2.5285   -1.2507    2.4146 C   0  0  0  0  0  0  0  0  0  0  0  0
    1.2658   -1.7811    2.2662 C   0  0  0  0  0  0  0  0  0  0  0  0
    0.6239   -1.7148    1.0289 C   0  0  0  0  0  0  0  0  0  0  0  0
   -0.7026   -2.2574    0.8185 C   0  0  0  0  0  0  0  0  0  0  0  0
   -1.2421   -2.8877    1.7439 O   0  0  0  0  0  0  0  0  0  0  0  0
   -1.4329   -2.0878   -0.4540 C   0  0  2  0  0  0  0  0  0  0  0  0
   -0.4769   -1.8975   -1.6127 C   0  0  2  0  0  0  0  0  0  0  0  0
    0.6096   -1.0635   -1.2456 O   0  0  0  0  0  0  0  0  0  0  0  0
   -1.1018   -1.3206   -2.8461 C   0  0  0  0  0  0  0  0  0  0  0  0
   -2.5032   -1.1288   -2.7506 O   0  0  0  0  0  0  0  0  0  0  0  0
   -3.0007   -0.5884   -1.5750 C   0  0  0  0  0  0  0  0  0  0  0  0
   -2.4722   -1.0531   -0.3885 C   0  0  0  0  0  0  0  0  0  0  0  0
   -2.9399   -0.5391    0.8227 C   0  0  0  0  0  0  0  0  0  0  0  0
   -3.9265    0.4289    0.8275 C   0  0  0  0  0  0  0  0  0  0  0  0
   -4.4602    0.8985   -0.3529 C   0  0  0  0  0  0  0  0  0  0  0  0
   -4.0002    0.3928   -1.5516 C   0  0  0  0  0  0  0  0  0  0  0  0
   -5.4428    1.8643   -0.3048 O   0  0  0  0  0  0  0  0  0  0  0  0
   -6.0232    2.3794   -1.4910 C   0  0  0  0  0  0  0  0  0  0  0  0
   -4.3808    0.9309    2.0632 O   0  0  0  0  0  0  0  0  0  0  0  0
   -3.8310    0.4468    3.2719 C   0  0  0  0  0  0  0  0  0  0  0  0
    3.5884    1.7196    0.6137 H   0  0  0  0  0  0  0  0  0  0  0  0
    2.9205    0.7286   -1.5706 H   0  0  0  0  0  0  0  0  0  0  0  0
    4.1476   -0.6395   -1.2780 H   0  0  0  0  0  0  0  0  0  0  0  0
    6.7032    1.7097   -2.0954 H   0  0  0  0  0  0  0  0  0  0  0  0
    5.1029    0.7384   -2.3347 H   0  0  0  0  0  0  0  0  0  0  0  0
    7.3072    1.6869    0.6800 H   0  0  0  0  0  0  0  0  0  0  0  0
    5.8792    2.5886    1.3536 H   0  0  0  0  0  0  0  0  0  0  0  0
    6.7463    3.1887   -0.0787 H   0  0  0  0  0  0  0  0  0  0  0  0
    3.0294   -1.2967    3.3602 H   0  0  0  0  0  0  0  0  0  0  0  0
    0.7292   -2.2593    3.0775 H   0  0  0  0  0  0  0  0  0  0  0  0
   -1.9611   -3.0651   -0.6427 H   0  0  0  0  0  0  0  0  0  0  0  0
   -0.0040   -2.8719   -1.8958 H   0  0  0  0  0  0  0  0  0  0  0  0
   -0.6569   -0.3374   -3.1259 H   0  0  0  0  0  0  0  0  0  0  0  0
   -0.8963   -2.0089   -3.7104 H   0  0  0  0  0  0  0  0  0  0  0  0
   -2.4983   -0.9304    1.7229 H   0  0  0  0  0  0  0  0  0  0  0  0
   -4.4162    0.7558   -2.4959 H   0  0  0  0  0  0  0  0  0  0  0  0
   -5.3244    3.0835   -2.0113 H   0  0  0  0  0  0  0  0  0  0  0  0
   -6.2602    1.5863   -2.2284 H   0  0  0  0  0  0  0  0  0  0  0  0
   -6.9161    2.9940   -1.2372 H   0  0  0  0  0  0  0  0  0  0  0  0
   -2.8213    0.9189    3.4064 H   0  0  0  0  0  0  0  0  0  0  0  0
   -4.4617    0.8664    4.0907 H   0  0  0  0  0  0  0  0  0  0  0  0
   -3.7365   -0.6370    3.3183 H   0  0  0  0  0  0  0  0  0  0  0  0
  1  2  1  0
  2  3  2  0
  3  4  1  0
  4  5  1  0
  5  6  1  0
  2  6  1  0
  5  7  1  0
  7  8  2  3
  7  9  1  0
  3 10  1  0
 10 11  2  0
 11 12  1  0
  1 12  2  0
 12 13  1  0
 13 14  2  0
 13 15  1  0
 15 16  1  0
 16 17  1  0
  1 17  1  0
 16 18  1  0
 18 19  1  0
 19 20  1  0
 20 21  2  0
 15 21  1  0
 21 22  1  0
 22 23  2  0
 23 24  1  0
 24 25  2  0
 20 25  1  0
 24 26  1  0
 26 27  1  0
 23 28  1  0
 28 29  1  0
  5 30  1  1
  6 31  1  0
  6 32  1  0
  8 33  1  0
  8 34  1  0
  9 35  1  0
  9 36  1  0
  9 37  1  0
 10 38  1  0
 11 39  1  0
 15 40  1  6
 16 41  1  6
 18 42  1  0
 18 43  1  0
 22 44  1  0
 25 45  1  0
 27 46  1  0
 27 47  1  0
 27 48  1  0
 29 49  1  0
 29 50  1  0
 29 51  1  0
M  END

