347828357
     RDKit          3D

 76 79  0  0  0  0  0  0  0  0999 V2000
    9.2593    2.5663   -0.9537 C   0  0  0  0  0  0  0  0  0  0  0  0
    7.8521    2.0133   -0.8929 C   0  0  0  0  0  0  0  0  0  0  0  0
    7.6751    1.1343    0.1866 O   0  0  0  0  0  0  0  0  0  0  0  0
    6.4187    0.5505    0.3604 C   0  0  0  0  0  0  0  0  0  0  0  0
    5.3855    0.8330   -0.5066 C   0  0  0  0  0  0  0  0  0  0  0  0
    4.1139    0.2842   -0.3822 C   0  0  0  0  0  0  0  0  0  0  0  0
    3.8864   -0.5758    0.6528 C   0  0  0  0  0  0  0  0  0  0  0  0
    4.8826   -0.8903    1.5442 C   0  0  0  0  0  0  0  0  0  0  0  0
    6.1587   -0.3259    1.4005 C   0  0  0  0  0  0  0  0  0  0  0  0
    7.1377   -0.6512    2.2941 O   0  0  0  0  0  0  0  0  0  0  0  0
    7.9818   -1.7623    2.1485 C   0  0  0  0  0  0  0  0  0  0  0  0
    8.7580   -1.6588    0.8774 C   0  0  0  0  0  0  0  0  0  0  0  0
    4.6325   -1.7563    2.5762 F   0  0  0  0  0  0  0  0  0  0  0  0
    2.5031   -1.0064    0.5671 C   0  0  0  0  0  0  0  0  0  0  0  0
    1.8706   -1.8270    1.3572 N   0  0  0  0  0  0  0  0  0  0  0  0
    1.8769   -0.3902   -0.5506 N   0  0  0  0  0  0  0  0  0  0  0  0
    2.8796    0.4364   -1.1721 C   0  0  0  0  0  0  0  0  0  0  0  0
    0.4996   -0.5590   -0.9804 C   0  0  0  0  0  0  0  0  0  0  0  0
   -0.4242    0.0616    0.0227 C   0  0  0  0  0  0  0  0  0  0  0  0
    0.0479    0.6457    1.0278 O   0  0  0  0  0  0  0  0  0  0  0  0
   -1.8525   -0.0121   -0.1662 C   0  0  0  0  0  0  0  0  0  0  0  0
   -2.4478   -0.6409   -1.2362 C   0  0  0  0  0  0  0  0  0  0  0  0
   -3.8375   -0.6983   -1.3941 C   0  0  0  0  0  0  0  0  0  0  0  0
   -4.6082   -0.1070   -0.4479 C   0  0  0  0  0  0  0  0  0  0  0  0
   -4.0882    0.5442    0.6551 C   0  0  0  0  0  0  0  0  0  0  0  0
   -2.6828    0.5671    0.7569 C   0  0  0  0  0  0  0  0  0  0  0  0
   -4.8532    1.1687    1.6400 N   0  0  0  0  0  0  0  0  0  0  0  0
   -5.6973    0.5171    2.5870 C   0  0  0  0  0  0  0  0  0  0  0  0
   -5.6172    1.4261    3.8767 C   0  0  0  0  0  0  0  0  0  0  0  0
   -6.3018    2.5560    3.5831 O   0  0  0  0  0  0  0  0  0  0  0  0
   -5.7274    3.3028    2.6024 C   0  0  0  0  0  0  0  0  0  0  0  0
   -4.7633    2.6136    1.7452 C   0  0  0  0  0  0  0  0  0  0  0  0
   -5.9753   -0.1278   -0.5500 O   0  0  0  0  0  0  0  0  0  0  0  0
   -6.7453   -1.1297    0.0466 C   0  0  0  0  0  0  0  0  0  0  0  0
   -4.3455   -1.3932   -2.5648 C   0  0  0  0  0  0  0  0  0  0  0  0
   -3.2010   -1.9021   -3.4553 C   0  0  0  0  0  0  0  0  0  0  0  0
   -5.2269   -2.5874   -2.2917 C   0  0  0  0  0  0  0  0  0  0  0  0
   -5.1375   -0.4197   -3.4052 C   0  0  0  0  0  0  0  0  0  0  0  0
    9.2583    3.6667   -0.7695 H   0  0  0  0  0  0  0  0  0  0  0  0
    9.8976    2.1292   -0.1520 H   0  0  0  0  0  0  0  0  0  0  0  0
    9.7003    2.4121   -1.9595 H   0  0  0  0  0  0  0  0  0  0  0  0
    7.1476    2.8706   -0.7669 H   0  0  0  0  0  0  0  0  0  0  0  0
    7.5621    1.5526   -1.8771 H   0  0  0  0  0  0  0  0  0  0  0  0
    5.5660    1.5181   -1.3325 H   0  0  0  0  0  0  0  0  0  0  0  0
    7.3591   -2.6821    2.1078 H   0  0  0  0  0  0  0  0  0  0  0  0
    8.7258   -1.8263    2.9798 H   0  0  0  0  0  0  0  0  0  0  0  0
    9.4535   -0.8013    0.8779 H   0  0  0  0  0  0  0  0  0  0  0  0
    8.0634   -1.5502    0.0089 H   0  0  0  0  0  0  0  0  0  0  0  0
    9.3446   -2.6046    0.7838 H   0  0  0  0  0  0  0  0  0  0  0  0
    0.8769   -2.0837    1.2257 H   0  0  0  0  0  0  0  0  0  0  0  0
    3.0873   -0.0091   -2.1719 H   0  0  0  0  0  0  0  0  0  0  0  0
    2.5537    1.4961   -1.2563 H   0  0  0  0  0  0  0  0  0  0  0  0
    0.2585   -1.6299   -1.0710 H   0  0  0  0  0  0  0  0  0  0  0  0
    0.3484   -0.0121   -1.9175 H   0  0  0  0  0  0  0  0  0  0  0  0
   -1.7896   -1.0939   -1.9589 H   0  0  0  0  0  0  0  0  0  0  0  0
   -2.2685    1.0824    1.6302 H   0  0  0  0  0  0  0  0  0  0  0  0
   -5.3511   -0.4519    2.9483 H   0  0  0  0  0  0  0  0  0  0  0  0
   -6.7752    0.5982    2.3562 H   0  0  0  0  0  0  0  0  0  0  0  0
   -6.0797    0.8393    4.6760 H   0  0  0  0  0  0  0  0  0  0  0  0
   -4.5357    1.5700    4.0115 H   0  0  0  0  0  0  0  0  0  0  0  0
   -6.5678    3.6681    1.9416 H   0  0  0  0  0  0  0  0  0  0  0  0
   -5.2894    4.2480    3.0453 H   0  0  0  0  0  0  0  0  0  0  0  0
   -3.7182    2.8191    2.1262 H   0  0  0  0  0  0  0  0  0  0  0  0
   -4.7908    3.0863    0.7207 H   0  0  0  0  0  0  0  0  0  0  0  0
   -6.2430   -1.7143    0.8162 H   0  0  0  0  0  0  0  0  0  0  0  0
   -7.3424   -1.7496   -0.6682 H   0  0  0  0  0  0  0  0  0  0  0  0
   -7.5788   -0.5667    0.5907 H   0  0  0  0  0  0  0  0  0  0  0  0
   -3.6444   -2.3668   -4.3786 H   0  0  0  0  0  0  0  0  0  0  0  0
   -2.5609   -1.0826   -3.8200 H   0  0  0  0  0  0  0  0  0  0  0  0
   -2.5944   -2.6472   -2.9578 H   0  0  0  0  0  0  0  0  0  0  0  0
   -4.8852   -3.4073   -2.9982 H   0  0  0  0  0  0  0  0  0  0  0  0
   -6.2594   -2.3860   -2.6309 H   0  0  0  0  0  0  0  0  0  0  0  0
   -5.1174   -3.0303   -1.3031 H   0  0  0  0  0  0  0  0  0  0  0  0
   -4.6243    0.5503   -3.5491 H   0  0  0  0  0  0  0  0  0  0  0  0
   -5.3234   -0.9208   -4.3936 H   0  0  0  0  0  0  0  0  0  0  0  0
   -6.1503   -0.2903   -2.9551 H   0  0  0  0  0  0  0  0  0  0  0  0
  1  2  1  0
  2  3  1  0
  3  4  1  0
  4  5  2  0
  5  6  1  0
  6  7  2  0
  7  8  1  0
  8  9  2  0
  4  9  1  0
  9 10  1  0
 10 11  1  0
 11 12  1  0
  8 13  1  0
  7 14  1  0
 14 15  2  3
 14 16  1  0
 16 17  1  0
  6 17  1  0
 16 18  1  0
 18 19  1  0
 19 20  2  0
 19 21  1  0
 21 22  2  0
 22 23  1  0
 23 24  2  0
 24 25  1  0
 25 26  2  0
 21 26  1  0
 25 27  1  0
 27 28  1  0
 28 29  1  0
 29 30  1  0
 30 31  1  0
 31 32  1  0
 27 32  1  0
 24 33  1  0
 33 34  1  0
 23 35  1  0
 35 36  1  0
 35 37  1  0
 35 38  1  0
  1 39  1  0
  1 40  1  0
  1 41  1  0
  2 42  1  0
  2 43  1  0
  5 44  1  0
 11 45  1  0
 11 46  1  0
 12 47  1  0
 12 48  1  0
 12 49  1  0
 15 50  1  0
 17 51  1  0
 17 52  1  0
 18 53  1  0
 18 54  1  0
 22 55  1  0
 26 56  1  0
 28 57  1  0
 28 58  1  0
 29 59  1  0
 29 60  1  0
 31 61  1  0
 31 62  1  0
 32 63  1  0
 32 64  1  0
 34 65  1  0
 34 66  1  0
 34 67  1  0
 36 68  1  0
 36 69  1  0
 36 70  1  0
 37 71  1  0
 37 72  1  0
 37 73  1  0
 38 74  1  0
 38 75  1  0
 38 76  1  0
M  END

