347828254
     RDKit          3D

 43 46  0  0  0  0  0  0  0  0999 V2000
   -2.4342    0.4557    1.6484 C   0  0  0  0  0  0  0  0  0  0  0  0
   -3.2447    0.2625    2.7514 C   0  0  0  0  0  0  0  0  0  0  0  0
   -4.5463   -0.2435    2.6431 C   0  0  0  0  0  0  0  0  0  0  0  0
   -4.9753   -0.5369    1.3769 C   0  0  0  0  0  0  0  0  0  0  0  0
   -4.1756   -0.3469    0.2667 C   0  0  0  0  0  0  0  0  0  0  0  0
   -2.8599    0.1628    0.3952 C   0  0  0  0  0  0  0  0  0  0  0  0
   -2.0763    0.2132   -0.8231 C   0  0  0  0  0  0  0  0  0  0  0  0
   -2.7244    0.4290   -2.0325 C   0  0  0  0  0  0  0  0  0  0  0  0
   -2.0474    0.5699   -3.2290 C   0  0  0  0  0  0  0  0  0  0  0  0
   -0.7107    0.4887   -3.1922 N   0  0  0  0  0  0  0  0  0  0  0  0
   -0.0272    0.2786   -2.0286 C   0  0  0  0  0  0  0  0  0  0  0  0
   -0.7366    0.1483   -0.8790 N   0  0  0  0  0  0  0  0  0  0  0  0
    1.3274    0.2270   -2.3217 C   0  0  0  0  0  0  0  0  0  0  0  0
    1.4269    0.4180   -3.7136 C   0  0  0  0  0  0  0  0  0  0  0  0
    0.1744    0.5695   -4.1940 N   0  0  0  0  0  0  0  0  0  0  0  0
    2.3965    0.0369   -1.4298 C   0  0  0  0  0  0  0  0  0  0  0  0
    3.3584   -0.1300   -0.6712 C   0  0  0  0  0  0  0  0  0  0  0  0
    4.4952   -0.2597    0.2178 C   0  0  0  0  0  0  0  0  0  0  0  0
    4.6710   -1.3724    1.0031 C   0  0  0  0  0  0  0  0  0  0  0  0
    5.7539   -1.3948    1.8334 C   0  0  0  0  0  0  0  0  0  0  0  0
    6.6390   -0.3149    1.8665 C   0  0  0  0  0  0  0  0  0  0  0  0
    6.4538    0.7692    1.0869 N   0  0  0  0  0  0  0  0  0  0  0  0
    5.4018    0.8092    0.2670 C   0  0  0  0  0  0  0  0  0  0  0  0
    7.7647   -0.3862    2.7602 N   0  0  0  0  0  0  0  0  0  0  0  0
   -2.7834    0.8545   -4.4854 C   0  0  0  0  0  0  0  0  0  0  0  0
   -4.1543    0.6896   -4.2598 F   0  0  0  0  0  0  0  0  0  0  0  0
   -2.5834    2.1567   -4.9255 F   0  0  0  0  0  0  0  0  0  0  0  0
   -2.4306    0.0240   -5.5161 F   0  0  0  0  0  0  0  0  0  0  0  0
   -5.4005   -0.4264    3.8658 C   0  0  0  0  0  0  0  0  0  0  0  0
   -5.8217    0.8086    4.3432 F   0  0  0  0  0  0  0  0  0  0  0  0
   -4.7271   -1.1349    4.8334 F   0  0  0  0  0  0  0  0  0  0  0  0
   -6.5429   -1.1362    3.5546 F   0  0  0  0  0  0  0  0  0  0  0  0
   -1.4257    0.8441    1.7752 H   0  0  0  0  0  0  0  0  0  0  0  0
   -2.9128    0.5163    3.7691 H   0  0  0  0  0  0  0  0  0  0  0  0
   -5.9860   -0.9493    1.2381 H   0  0  0  0  0  0  0  0  0  0  0  0
   -4.5840   -0.6392   -0.6911 H   0  0  0  0  0  0  0  0  0  0  0  0
   -3.8024    0.5292   -2.0792 H   0  0  0  0  0  0  0  0  0  0  0  0
    2.3496    0.4429   -4.2484 H   0  0  0  0  0  0  0  0  0  0  0  0
    3.9701   -2.1620    0.9454 H   0  0  0  0  0  0  0  0  0  0  0  0
    5.9489   -2.2391    2.4787 H   0  0  0  0  0  0  0  0  0  0  0  0
    5.2485    1.6802   -0.3769 H   0  0  0  0  0  0  0  0  0  0  0  0
    7.9687    0.4909    3.3078 H   0  0  0  0  0  0  0  0  0  0  0  0
    8.3644   -1.2030    2.8690 H   0  0  0  0  0  0  0  0  0  0  0  0
  1  2  2  0
  2  3  1  0
  3  4  2  0
  4  5  1  0
  5  6  2  0
  1  6  1  0
  6  7  1  0
  7  8  1  0
  8  9  2  0
  9 10  1  0
 10 11  1  0
 11 12  1  0
  7 12  2  0
 11 13  2  0
 13 14  1  0
 14 15  2  0
 10 15  1  0
 13 16  1  0
 16 17  3  0
 17 18  1  0
 18 19  2  0
 19 20  1  0
 20 21  2  0
 21 22  1  0
 22 23  2  0
 18 23  1  0
 21 24  1  0
  9 25  1  0
 25 26  1  0
 25 27  1  0
 25 28  1  0
  3 29  1  0
 29 30  1  0
 29 31  1  0
 29 32  1  0
  1 33  1  0
  2 34  1  0
  4 35  1  0
  5 36  1  0
  8 37  1  0
 14 38  1  0
 19 39  1  0
 20 40  1  0
 23 41  1  0
 24 42  1  0
 24 43  1  0
M  END

