347828742
     RDKit          3D

 61 64  0  0  0  0  0  0  0  0999 V2000
    6.5173    0.1694   -3.4497 C   0  0  0  0  0  0  0  0  0  0  0  0
    6.3191   -0.0731   -1.9814 C   0  0  0  0  0  0  0  0  0  0  0  0
    5.0880   -0.1761   -1.3807 C   0  0  0  0  0  0  0  0  0  0  0  0
    5.3581   -0.3916   -0.0652 N   0  0  0  0  0  0  0  0  0  0  0  0
    6.6895   -0.4182    0.1237 C   0  0  0  0  0  0  0  0  0  0  0  0
    7.2396   -0.2235   -1.0488 O   0  0  0  0  0  0  0  0  0  0  0  0
    7.3662   -0.6267    1.4061 C   0  0  0  0  0  0  0  0  0  0  0  0
    6.6322   -0.8188    2.5573 C   0  0  0  0  0  0  0  0  0  0  0  0
    7.2551   -1.0169    3.7770 C   0  0  0  0  0  0  0  0  0  0  0  0
    8.6294   -1.0293    3.8843 C   0  0  0  0  0  0  0  0  0  0  0  0
    9.3684   -0.8389    2.7438 C   0  0  0  0  0  0  0  0  0  0  0  0
    8.7401   -0.6406    1.5229 C   0  0  0  0  0  0  0  0  0  0  0  0
    3.7165   -0.0774   -1.9982 C   0  0  0  0  0  0  0  0  0  0  0  0
    2.7249   -0.2418   -1.0224 O   0  0  0  0  0  0  0  0  0  0  0  0
    1.3822   -0.1900   -1.3431 C   0  0  0  0  0  0  0  0  0  0  0  0
    0.9741    0.0246   -2.6392 C   0  0  0  0  0  0  0  0  0  0  0  0
   -0.3786    0.0809   -2.9828 C   0  0  0  0  0  0  0  0  0  0  0  0
   -1.2963   -0.0886   -1.9626 C   0  0  0  0  0  0  0  0  0  0  0  0
   -0.9047   -0.3048   -0.6589 C   0  0  0  0  0  0  0  0  0  0  0  0
    0.4384   -0.3548   -0.3527 C   0  0  0  0  0  0  0  0  0  0  0  0
   -2.7470   -0.0195   -2.3573 C   0  0  0  0  0  0  0  0  0  0  0  0
   -3.4925   -0.1657   -1.1705 O   0  0  0  0  0  0  0  0  0  0  0  0
   -4.8430   -0.1584   -1.0674 N   0  0  0  0  0  0  0  0  0  0  0  0
   -5.4457    0.6044   -0.1617 C   0  0  0  0  0  0  0  0  0  0  0  0
   -4.5247    1.3891    0.6620 C   0  0  0  0  0  0  0  0  0  0  0  0
   -4.0574    0.8283    1.9282 C   0  0  0  0  0  0  0  0  0  0  0  0
   -4.9310    0.4809    3.0279 C   0  0  0  0  0  0  0  0  0  0  0  0
   -6.1468    0.6051    3.1443 O   0  0  0  0  0  0  0  0  0  0  0  0
   -4.3044   -0.1093    4.1927 O   0  0  0  0  0  0  0  0  0  0  0  0
   -6.8724    0.4624   -0.0829 C   0  0  0  0  0  0  0  0  0  0  0  0
   -7.6392    1.3270    0.6486 C   0  0  0  0  0  0  0  0  0  0  0  0
   -8.9973    1.2142    0.7564 C   0  0  0  0  0  0  0  0  0  0  0  0
   -9.6640    0.1881    0.1073 C   0  0  0  0  0  0  0  0  0  0  0  0
   -8.8989   -0.6835   -0.6297 C   0  0  0  0  0  0  0  0  0  0  0  0
   -7.5382   -0.5710   -0.7376 C   0  0  0  0  0  0  0  0  0  0  0  0
    6.1475   -0.7036   -4.0436 H   0  0  0  0  0  0  0  0  0  0  0  0
    7.5460    0.4572   -3.6697 H   0  0  0  0  0  0  0  0  0  0  0  0
    5.8389    1.0140   -3.7424 H   0  0  0  0  0  0  0  0  0  0  0  0
    5.5509   -0.8083    2.4664 H   0  0  0  0  0  0  0  0  0  0  0  0
    6.6917   -1.1688    4.6876 H   0  0  0  0  0  0  0  0  0  0  0  0
    9.1223   -1.1862    4.8516 H   0  0  0  0  0  0  0  0  0  0  0  0
   10.4522   -0.8524    2.8499 H   0  0  0  0  0  0  0  0  0  0  0  0
    9.3443   -0.4947    0.6505 H   0  0  0  0  0  0  0  0  0  0  0  0
    3.6643   -0.8157   -2.8243 H   0  0  0  0  0  0  0  0  0  0  0  0
    3.6908    0.9302   -2.4678 H   0  0  0  0  0  0  0  0  0  0  0  0
    1.7351    0.1503   -3.3957 H   0  0  0  0  0  0  0  0  0  0  0  0
   -0.6387    0.2520   -4.0158 H   0  0  0  0  0  0  0  0  0  0  0  0
   -1.6798   -0.4284    0.0825 H   0  0  0  0  0  0  0  0  0  0  0  0
    0.7501   -0.5272    0.6890 H   0  0  0  0  0  0  0  0  0  0  0  0
   -2.9368   -0.9210   -2.9912 H   0  0  0  0  0  0  0  0  0  0  0  0
   -2.9782    0.9154   -2.8954 H   0  0  0  0  0  0  0  0  0  0  0  0
   -5.0727    2.3830    0.8545 H   0  0  0  0  0  0  0  0  0  0  0  0
   -3.6495    1.7613    0.0286 H   0  0  0  0  0  0  0  0  0  0  0  0
   -3.2347    1.4998    2.3498 H   0  0  0  0  0  0  0  0  0  0  0  0
   -3.4526   -0.1057    1.6654 H   0  0  0  0  0  0  0  0  0  0  0  0
   -4.7299   -0.9013    4.6385 H   0  0  0  0  0  0  0  0  0  0  0  0
   -7.1505    2.1614    1.1714 H   0  0  0  0  0  0  0  0  0  0  0  0
   -9.6187    1.9054    1.3433 H   0  0  0  0  0  0  0  0  0  0  0  0
  -10.7201    0.1083    0.1963 H   0  0  0  0  0  0  0  0  0  0  0  0
   -9.4348   -1.4948   -1.1425 H   0  0  0  0  0  0  0  0  0  0  0  0
   -6.9942   -1.2861   -1.3308 H   0  0  0  0  0  0  0  0  0  0  0  0
  1  2  1  0
  2  3  2  0
  3  4  1  0
  4  5  2  0
  5  6  1  0
  2  6  1  0
  5  7  1  0
  7  8  2  0
  8  9  1  0
  9 10  2  0
 10 11  1  0
 11 12  2  0
  7 12  1  0
  3 13  1  0
 13 14  1  0
 14 15  1  0
 15 16  2  0
 16 17  1  0
 17 18  2  0
 18 19  1  0
 19 20  2  0
 15 20  1  0
 18 21  1  0
 21 22  1  0
 22 23  1  0
 23 24  2  0
 24 25  1  0
 25 26  1  0
 26 27  1  0
 27 28  2  0
 27 29  1  0
 24 30  1  0
 30 31  2  0
 31 32  1  0
 32 33  2  0
 33 34  1  0
 34 35  2  0
 30 35  1  0
  1 36  1  0
  1 37  1  0
  1 38  1  0
  8 39  1  0
  9 40  1  0
 10 41  1  0
 11 42  1  0
 12 43  1  0
 13 44  1  0
 13 45  1  0
 16 46  1  0
 17 47  1  0
 19 48  1  0
 20 49  1  0
 21 50  1  0
 21 51  1  0
 25 52  1  0
 25 53  1  0
 26 54  1  0
 26 55  1  0
 29 56  1  0
 31 57  1  0
 32 58  1  0
 33 59  1  0
 34 60  1  0
 35 61  1  0
M  END

