347828022
     RDKit          3D

 59 64  0  0  0  0  0  0  0  0999 V2000
   -3.2259   -4.1630    0.0737 C   0  0  0  0  0  0  0  0  0  0  0  0
   -4.0510   -2.9413    0.2883 C   0  0  0  0  0  0  0  0  0  0  0  0
   -5.1367   -2.9233   -0.8018 C   0  0  0  0  0  0  0  0  0  0  0  0
   -4.7632   -3.0740    1.5678 C   0  0  0  0  0  0  0  0  0  0  0  0
   -5.3274   -3.1642    2.5660 N   0  0  0  0  0  0  0  0  0  0  0  0
   -3.2817   -1.6774    0.2476 C   0  0  0  0  0  0  0  0  0  0  0  0
   -2.6914   -1.2328   -0.9114 C   0  0  0  0  0  0  0  0  0  0  0  0
   -2.0688    0.0222   -0.9528 C   0  0  0  0  0  0  0  0  0  0  0  0
   -2.0442    0.8198    0.1584 C   0  0  0  0  0  0  0  0  0  0  0  0
   -2.6439    0.3367    1.3237 C   0  0  0  0  0  0  0  0  0  0  0  0
   -3.2648   -0.8929    1.4002 C   0  0  0  0  0  0  0  0  0  0  0  0
   -1.7044    2.1988    0.1329 N   0  0  0  0  0  0  0  0  0  0  0  0
   -0.6453    2.9409   -0.0093 C   0  0  0  0  0  0  0  0  0  0  0  0
    0.6804    2.6322   -0.1411 C   0  0  0  0  0  0  0  0  0  0  0  0
    1.1027    1.3080   -0.0846 C   0  0  0  0  0  0  0  0  0  0  0  0
    2.4345    0.9832   -0.2031 C   0  0  0  0  0  0  0  0  0  0  0  0
    3.3154    2.0670   -0.3844 C   0  0  0  0  0  0  0  0  0  0  0  0
    2.9407    3.3649   -0.4412 C   0  0  0  0  0  0  0  0  0  0  0  0
    1.6006    3.6642   -0.3173 C   0  0  0  0  0  0  0  0  0  0  0  0
    1.2022    4.9528   -0.3521 N   0  0  0  0  0  0  0  0  0  0  0  0
   -0.0897    5.2458   -0.2163 C   0  0  0  0  0  0  0  0  0  0  0  0
   -1.0490    4.2817   -0.0434 C   0  0  0  0  0  0  0  0  0  0  0  0
   -2.3832    4.3237    0.0901 N   0  0  0  0  0  0  0  0  0  0  0  0
   -2.8086    3.0796    0.1984 C   0  0  0  0  0  0  0  0  0  0  0  0
   -4.0084    2.7499    0.3412 O   0  0  0  0  0  0  0  0  0  0  0  0
   -3.1603    5.5519    0.1036 C   0  0  0  0  0  0  0  0  0  0  0  0
    3.0349   -0.3403   -0.0893 C   0  0  0  0  0  0  0  0  0  0  0  0
    4.3473   -0.4647    0.3865 C   0  0  0  0  0  0  0  0  0  0  0  0
    5.0185   -1.6537    0.4939 C   0  0  0  0  0  0  0  0  0  0  0  0
    6.3229   -1.7227    0.9451 C   0  0  0  0  0  0  0  0  0  0  0  0
    6.9768   -2.9087    1.0207 C   0  0  0  0  0  0  0  0  0  0  0  0
    6.3276   -4.0565    0.6404 C   0  0  0  0  0  0  0  0  0  0  0  0
    5.0287   -3.9861    0.1905 C   0  0  0  0  0  0  0  0  0  0  0  0
    4.3225   -2.7900    0.0969 C   0  0  0  0  0  0  0  0  0  0  0  0
    3.0626   -2.7222   -0.3658 N   0  0  0  0  0  0  0  0  0  0  0  0
    2.4264   -1.5036   -0.4554 C   0  0  0  0  0  0  0  0  0  0  0  0
   -3.9375   -5.0337    0.0711 H   0  0  0  0  0  0  0  0  0  0  0  0
   -2.8085   -4.1268   -0.9415 H   0  0  0  0  0  0  0  0  0  0  0  0
   -2.4854   -4.3526    0.8486 H   0  0  0  0  0  0  0  0  0  0  0  0
   -4.8822   -2.0736   -1.5027 H   0  0  0  0  0  0  0  0  0  0  0  0
   -5.1701   -3.8295   -1.4040 H   0  0  0  0  0  0  0  0  0  0  0  0
   -6.1255   -2.7154   -0.3524 H   0  0  0  0  0  0  0  0  0  0  0  0
   -2.7088   -1.8650   -1.8012 H   0  0  0  0  0  0  0  0  0  0  0  0
   -1.6149    0.3369   -1.8637 H   0  0  0  0  0  0  0  0  0  0  0  0
   -2.6335    0.9496    2.2339 H   0  0  0  0  0  0  0  0  0  0  0  0
   -3.7361   -1.2817    2.2922 H   0  0  0  0  0  0  0  0  0  0  0  0
    0.3816    0.5380    0.0639 H   0  0  0  0  0  0  0  0  0  0  0  0
    4.3529    1.8239   -0.4980 H   0  0  0  0  0  0  0  0  0  0  0  0
    3.6222    4.1976   -0.5758 H   0  0  0  0  0  0  0  0  0  0  0  0
   -0.4594    6.2873   -0.2431 H   0  0  0  0  0  0  0  0  0  0  0  0
   -3.4962    5.8752   -0.8944 H   0  0  0  0  0  0  0  0  0  0  0  0
   -4.0393    5.3852    0.7727 H   0  0  0  0  0  0  0  0  0  0  0  0
   -2.5842    6.3759    0.5787 H   0  0  0  0  0  0  0  0  0  0  0  0
    4.8463    0.4273    0.6905 H   0  0  0  0  0  0  0  0  0  0  0  0
    6.8245   -0.8189    1.2410 H   0  0  0  0  0  0  0  0  0  0  0  0
    8.0206   -2.9593    1.3814 H   0  0  0  0  0  0  0  0  0  0  0  0
    6.8468   -5.0280    0.6915 H   0  0  0  0  0  0  0  0  0  0  0  0
    4.5686   -4.9014   -0.0939 H   0  0  0  0  0  0  0  0  0  0  0  0
    1.4212   -1.5171   -0.8242 H   0  0  0  0  0  0  0  0  0  0  0  0
  1  2  1  0
  2  3  1  0
  2  4  1  0
  4  5  3  0
  2  6  1  0
  6  7  2  0
  7  8  1  0
  8  9  2  0
  9 10  1  0
 10 11  2  0
  6 11  1  0
  9 12  1  0
 12 13  1  0
 13 14  1  0
 14 15  2  0
 15 16  1  0
 16 17  2  0
 17 18  1  0
 18 19  2  0
 14 19  1  0
 19 20  1  0
 20 21  2  0
 21 22  1  0
 13 22  2  0
 22 23  1  0
 23 24  1  0
 12 24  1  0
 24 25  2  0
 23 26  1  0
 16 27  1  0
 27 28  2  0
 28 29  1  0
 29 30  2  0
 30 31  1  0
 31 32  2  0
 32 33  1  0
 33 34  2  0
 29 34  1  0
 34 35  1  0
 35 36  2  0
 27 36  1  0
  1 37  1  0
  1 38  1  0
  1 39  1  0
  3 40  1  0
  3 41  1  0
  3 42  1  0
  7 43  1  0
  8 44  1  0
 10 45  1  0
 11 46  1  0
 15 47  1  0
 17 48  1  0
 18 49  1  0
 21 50  1  0
 26 51  1  0
 26 52  1  0
 26 53  1  0
 28 54  1  0
 30 55  1  0
 31 56  1  0
 32 57  1  0
 33 58  1  0
 36 59  1  0
M  END

