347827946
     RDKit          3D

 96 95  0  0  0  0  0  0  0  0999 V2000
   15.3712   -3.5248    1.7376 C   0  0  0  0  0  0  0  0  0  0  0  0
   13.9145   -3.7464    1.8572 C   0  0  0  0  0  0  0  0  0  0  0  0
   13.3774   -5.1010    1.5030 C   0  0  0  0  0  0  0  0  0  0  0  0
   13.1293   -2.7690    2.2608 C   0  0  0  0  0  0  0  0  0  0  0  0
   13.5696   -1.3896    2.6304 C   0  0  0  0  0  0  0  0  0  0  0  0
   13.1839   -0.3267    1.6319 C   0  0  0  0  0  0  0  0  0  0  0  0
   11.7575   -0.1790    1.3622 C   0  0  0  0  0  0  0  0  0  0  0  0
   11.0557   -1.3284    0.7249 C   0  0  0  0  0  0  0  0  0  0  0  0
   11.0416    0.9576    1.5161 C   0  0  0  0  0  0  0  0  0  0  0  0
    9.6228    0.9475    1.2295 C   0  0  0  0  0  0  0  0  0  0  0  0
    8.7670    1.9117    1.1781 C   0  0  0  0  0  0  0  0  0  0  0  0
    7.4038    1.6535    0.8819 C   0  0  0  0  0  0  0  0  0  0  0  0
    6.9360    0.2934    0.5161 C   0  0  0  0  0  0  0  0  0  0  0  0
    6.4939    2.6157    0.7301 C   0  0  0  0  0  0  0  0  0  0  0  0
    5.0881    2.1956    0.4591 C   0  0  0  0  0  0  0  0  0  0  0  0
    4.1158    3.0180    0.1171 C   0  0  0  0  0  0  0  0  0  0  0  0
    2.7637    2.5776   -0.1158 C   0  0  0  0  0  0  0  0  0  0  0  0
    2.3679    1.1825    0.2656 C   0  0  0  0  0  0  0  0  0  0  0  0
    1.8250    3.3310   -0.6216 C   0  0  0  0  0  0  0  0  0  0  0  0
    0.4904    2.7339   -0.7808 C   0  0  0  0  0  0  0  0  0  0  0  0
   -0.4820    3.3678   -1.4442 C   0  0  0  0  0  0  0  0  0  0  0  0
   -1.7902    2.7614   -1.5688 C   0  0  0  0  0  0  0  0  0  0  0  0
   -2.7938    3.0362   -2.2244 C   0  0  0  0  0  0  0  0  0  0  0  0
   -2.7609    4.2361   -3.1377 C   0  0  0  0  0  0  0  0  0  0  0  0
   -4.0623    2.3877   -1.9706 C   0  0  0  0  0  0  0  0  0  0  0  0
   -5.1818    2.4231   -2.6624 C   0  0  0  0  0  0  0  0  0  0  0  0
   -6.2724    1.6748   -2.1016 C   0  0  0  0  0  0  0  0  0  0  0  0
   -7.4470    1.3559   -2.5587 C   0  0  0  0  0  0  0  0  0  0  0  0
   -7.7360    1.8456   -3.9579 C   0  0  0  0  0  0  0  0  0  0  0  0
   -8.4843    0.9100   -1.7028 C   0  0  0  0  0  0  0  0  0  0  0  0
   -9.6492    0.3928   -2.0752 C   0  0  0  0  0  0  0  0  0  0  0  0
  -10.5802    0.0598   -0.9705 C   0  0  0  0  0  0  0  0  0  0  0  0
  -11.7262   -0.5494   -1.1718 C   0  0  0  0  0  0  0  0  0  0  0  0
  -12.1593   -0.9655   -2.5160 C   0  0  0  0  0  0  0  0  0  0  0  0
  -12.7212   -0.7420   -0.0425 C   0  0  0  0  0  0  0  0  0  0  0  0
  -12.8130   -2.2504    0.1769 C   0  0  0  0  0  0  0  0  0  0  0  0
  -13.9014   -2.5873    1.1280 C   0  0  0  0  0  0  0  0  0  0  0  0
  -13.7048   -2.9778    2.3499 C   0  0  0  0  0  0  0  0  0  0  0  0
  -12.3625   -3.1202    2.9429 C   0  0  0  0  0  0  0  0  0  0  0  0
  -14.9054   -3.2966    3.1729 C   0  0  0  0  0  0  0  0  0  0  0  0
   15.8983   -4.5105    1.5653 H   0  0  0  0  0  0  0  0  0  0  0  0
   15.6168   -2.8812    0.8879 H   0  0  0  0  0  0  0  0  0  0  0  0
   15.7985   -3.1009    2.6510 H   0  0  0  0  0  0  0  0  0  0  0  0
   12.4436   -5.2640    2.0742 H   0  0  0  0  0  0  0  0  0  0  0  0
   13.1269   -5.1953    0.4168 H   0  0  0  0  0  0  0  0  0  0  0  0
   14.0773   -5.9005    1.7793 H   0  0  0  0  0  0  0  0  0  0  0  0
   12.0578   -3.0501    2.3177 H   0  0  0  0  0  0  0  0  0  0  0  0
   13.1986   -1.1330    3.6656 H   0  0  0  0  0  0  0  0  0  0  0  0
   14.6698   -1.4081    2.7263 H   0  0  0  0  0  0  0  0  0  0  0  0
   13.7276   -0.5009    0.6966 H   0  0  0  0  0  0  0  0  0  0  0  0
   13.5951    0.6679    2.0237 H   0  0  0  0  0  0  0  0  0  0  0  0
   10.5281   -0.8066   -0.1745 H   0  0  0  0  0  0  0  0  0  0  0  0
   10.3118   -1.8605    1.2866 H   0  0  0  0  0  0  0  0  0  0  0  0
   11.7465   -2.0310    0.2375 H   0  0  0  0  0  0  0  0  0  0  0  0
   11.6484    1.7619    1.8888 H   0  0  0  0  0  0  0  0  0  0  0  0
    9.2102   -0.0966    1.0785 H   0  0  0  0  0  0  0  0  0  0  0  0
    9.1627    2.9332    1.3666 H   0  0  0  0  0  0  0  0  0  0  0  0
    6.2102    0.3981   -0.3770 H   0  0  0  0  0  0  0  0  0  0  0  0
    6.3016   -0.1007    1.3264 H   0  0  0  0  0  0  0  0  0  0  0  0
    7.7146   -0.3937    0.1570 H   0  0  0  0  0  0  0  0  0  0  0  0
    6.7360    3.6513    0.7698 H   0  0  0  0  0  0  0  0  0  0  0  0
    4.7786    1.1519    0.5386 H   0  0  0  0  0  0  0  0  0  0  0  0
    4.4054    4.0482   -0.0181 H   0  0  0  0  0  0  0  0  0  0  0  0
    3.0920    0.6589    0.9123 H   0  0  0  0  0  0  0  0  0  0  0  0
    2.2674    0.5411   -0.6696 H   0  0  0  0  0  0  0  0  0  0  0  0
    1.4146    1.1771    0.8546 H   0  0  0  0  0  0  0  0  0  0  0  0
    1.9913    4.3130   -0.9169 H   0  0  0  0  0  0  0  0  0  0  0  0
    0.2441    1.7515   -0.4002 H   0  0  0  0  0  0  0  0  0  0  0  0
   -0.2060    4.3321   -1.8577 H   0  0  0  0  0  0  0  0  0  0  0  0
   -1.8709    1.8346   -0.8903 H   0  0  0  0  0  0  0  0  0  0  0  0
   -1.9742    4.9395   -2.7626 H   0  0  0  0  0  0  0  0  0  0  0  0
   -2.7588    4.0090   -4.1764 H   0  0  0  0  0  0  0  0  0  0  0  0
   -3.7244    4.7920   -2.9017 H   0  0  0  0  0  0  0  0  0  0  0  0
   -4.0983    1.7722   -1.0217 H   0  0  0  0  0  0  0  0  0  0  0  0
   -5.2184    3.0038   -3.5515 H   0  0  0  0  0  0  0  0  0  0  0  0
   -6.1585    1.2817   -1.0237 H   0  0  0  0  0  0  0  0  0  0  0  0
   -6.9122    2.4056   -4.3963 H   0  0  0  0  0  0  0  0  0  0  0  0
   -8.0594    1.0213   -4.6013 H   0  0  0  0  0  0  0  0  0  0  0  0
   -8.6521    2.5092   -3.9614 H   0  0  0  0  0  0  0  0  0  0  0  0
   -8.3474    0.9763   -0.5865 H   0  0  0  0  0  0  0  0  0  0  0  0
   -9.8970    0.2222   -3.0734 H   0  0  0  0  0  0  0  0  0  0  0  0
  -10.3530    0.3079    0.0512 H   0  0  0  0  0  0  0  0  0  0  0  0
  -13.3012   -1.0699   -2.5067 H   0  0  0  0  0  0  0  0  0  0  0  0
  -11.8103   -2.0171   -2.7352 H   0  0  0  0  0  0  0  0  0  0  0  0
  -11.9192   -0.2800   -3.3196 H   0  0  0  0  0  0  0  0  0  0  0  0
  -13.7230   -0.3320   -0.3194 H   0  0  0  0  0  0  0  0  0  0  0  0
  -12.3643   -0.2094    0.8533 H   0  0  0  0  0  0  0  0  0  0  0  0
  -12.9033   -2.7885   -0.7786 H   0  0  0  0  0  0  0  0  0  0  0  0
  -11.7984   -2.5894    0.5790 H   0  0  0  0  0  0  0  0  0  0  0  0
  -14.9245   -2.5006    0.7145 H   0  0  0  0  0  0  0  0  0  0  0  0
  -11.7205   -3.7104    2.2248 H   0  0  0  0  0  0  0  0  0  0  0  0
  -12.3402   -3.6293    3.9022 H   0  0  0  0  0  0  0  0  0  0  0  0
  -11.9282   -2.0882    3.0186 H   0  0  0  0  0  0  0  0  0  0  0  0
  -14.8504   -4.2646    3.6672 H   0  0  0  0  0  0  0  0  0  0  0  0
  -15.8113   -3.3029    2.5257 H   0  0  0  0  0  0  0  0  0  0  0  0
  -15.0898   -2.4604    3.9243 H   0  0  0  0  0  0  0  0  0  0  0  0
  1  2  1  0
  2  3  1  0
  2  4  2  3
  4  5  1  0
  5  6  1  0
  6  7  1  0
  7  8  1  0
  7  9  2  0
  9 10  1  0
 10 11  2  0
 11 12  1  0
 12 13  1  0
 12 14  2  0
 14 15  1  0
 15 16  2  0
 16 17  1  0
 17 18  1  0
 17 19  2  0
 19 20  1  0
 20 21  2  0
 21 22  1  0
 22 23  2  0
 23 24  1  0
 23 25  1  0
 25 26  2  0
 26 27  1  0
 27 28  2  0
 28 29  1  0
 28 30  1  0
 30 31  2  0
 31 32  1  0
 32 33  2  0
 33 34  1  0
 33 35  1  0
 35 36  1  0
 36 37  1  0
 37 38  2  3
 38 39  1  0
 38 40  1  0
  1 41  1  0
  1 42  1  0
  1 43  1  0
  3 44  1  0
  3 45  1  0
  3 46  1  0
  4 47  1  0
  5 48  1  0
  5 49  1  0
  6 50  1  0
  6 51  1  0
  8 52  1  0
  8 53  1  0
  8 54  1  0
  9 55  1  0
 10 56  1  0
 11 57  1  0
 13 58  1  0
 13 59  1  0
 13 60  1  0
 14 61  1  0
 15 62  1  0
 16 63  1  0
 18 64  1  0
 18 65  1  0
 18 66  1  0
 19 67  1  0
 20 68  1  0
 21 69  1  0
 22 70  1  0
 24 71  1  0
 24 72  1  0
 24 73  1  0
 25 74  1  0
 26 75  1  0
 27 76  1  0
 29 77  1  0
 29 78  1  0
 29 79  1  0
 30 80  1  0
 31 81  1  0
 32 82  1  0
 34 83  1  0
 34 84  1  0
 34 85  1  0
 35 86  1  0
 35 87  1  0
 36 88  1  0
 36 89  1  0
 37 90  1  0
 39 91  1  0
 39 92  1  0
 39 93  1  0
 40 94  1  0
 40 95  1  0
 40 96  1  0
M  END

