347828259
     RDKit          3D

 26 27  0  0  0  0  0  0  0  0999 V2000
   -4.9868   -0.2486   -0.0649 C   0  0  0  0  0  0  0  0  0  0  0  0
   -3.5036   -0.1532   -0.0433 C   0  0  0  0  0  0  0  0  0  0  0  0
   -2.8580    0.7706    0.7681 C   0  0  0  0  0  0  0  0  0  0  0  0
   -1.4941    0.8126    0.7464 C   0  0  0  0  0  0  0  0  0  0  0  0
   -0.7185   -0.0145   -0.0396 C   0  0  0  0  0  0  0  0  0  0  0  0
   -1.3590   -0.8992   -0.8156 N   0  0  0  0  0  0  0  0  0  0  0  0
   -2.6993   -0.9606   -0.8126 C   0  0  0  0  0  0  0  0  0  0  0  0
    0.7497    0.0663   -0.0306 C   0  0  0  0  0  0  0  0  0  0  0  0
    1.4623   -0.7918   -0.8419 C   0  0  0  0  0  0  0  0  0  0  0  0
    2.8596   -0.7440   -0.8599 C   0  0  0  0  0  0  0  0  0  0  0  0
    3.5021    0.1675   -0.0595 C   0  0  0  0  0  0  0  0  0  0  0  0
    2.7830    1.0023    0.7309 C   0  0  0  0  0  0  0  0  0  0  0  0
    1.4180    0.9306    0.7258 N   0  0  0  0  0  0  0  0  0  0  0  0
    4.9755    0.2179   -0.0784 C   0  0  0  0  0  0  0  0  0  0  0  0
   -5.2536   -0.9936   -0.8563 H   0  0  0  0  0  0  0  0  0  0  0  0
   -5.4022   -0.6245    0.8771 H   0  0  0  0  0  0  0  0  0  0  0  0
   -5.4380    0.7472   -0.2542 H   0  0  0  0  0  0  0  0  0  0  0  0
   -3.4421    1.4159    1.3803 H   0  0  0  0  0  0  0  0  0  0  0  0
   -0.9679    1.5233    1.3693 H   0  0  0  0  0  0  0  0  0  0  0  0
   -3.1990   -1.6942   -1.4575 H   0  0  0  0  0  0  0  0  0  0  0  0
    0.9143   -1.4992   -1.4609 H   0  0  0  0  0  0  0  0  0  0  0  0
    3.4176   -1.4243   -1.5028 H   0  0  0  0  0  0  0  0  0  0  0  0
    3.2129    1.7392    1.3820 H   0  0  0  0  0  0  0  0  0  0  0  0
    5.2809    0.3610   -1.1542 H   0  0  0  0  0  0  0  0  0  0  0  0
    5.3500    1.0552    0.5523 H   0  0  0  0  0  0  0  0  0  0  0  0
    5.3961   -0.7618    0.2445 H   0  0  0  0  0  0  0  0  0  0  0  0
  1  2  1  0
  2  3  2  0
  3  4  1  0
  4  5  2  0
  5  6  1  0
  6  7  2  0
  2  7  1  0
  5  8  1  0
  8  9  2  0
  9 10  1  0
 10 11  2  0
 11 12  1  0
 12 13  2  0
  8 13  1  0
 11 14  1  0
  1 15  1  0
  1 16  1  0
  1 17  1  0
  3 18  1  0
  4 19  1  0
  7 20  1  0
  9 21  1  0
 10 22  1  0
 12 23  1  0
 14 24  1  0
 14 25  1  0
 14 26  1  0
M  END

