347828729
     RDKit          3D

 51 54  0  0  0  0  0  0  0  0999 V2000
   -5.6384   -1.1069    0.5366 C   0  0  0  0  0  0  0  0  0  0  0  0
   -5.0455   -1.1806   -0.7840 N   0  0  0  0  0  0  0  0  0  0  0  0
   -5.2469   -0.0082   -1.5712 C   0  0  0  0  0  0  0  0  0  0  0  0
   -4.3292    1.1238   -1.2250 C   0  0  0  0  0  0  0  0  0  0  0  0
   -2.9437    0.6149   -0.8169 C   0  0  0  0  0  0  0  0  0  0  0  0
   -2.8214   -0.7403   -1.5394 C   0  0  0  0  0  0  0  0  0  0  0  0
   -3.7125   -1.6897   -0.7693 C   0  0  0  0  0  0  0  0  0  0  0  0
   -1.8971    1.5666   -1.2890 C   0  0  0  0  0  0  0  0  0  0  0  0
   -0.5565    1.2475   -0.9887 N   0  0  0  0  0  0  0  0  0  0  0  0
   -0.0069    1.3181    0.3423 C   0  0  0  0  0  0  0  0  0  0  0  0
   -0.7668    1.7769    1.3975 C   0  0  0  0  0  0  0  0  0  0  0  0
   -0.2320    1.8213    2.6686 C   0  0  0  0  0  0  0  0  0  0  0  0
    1.0721    1.3897    2.8052 C   0  0  0  0  0  0  0  0  0  0  0  0
    1.8812    1.3013    3.8724 N   0  0  0  0  0  0  0  0  0  0  0  0
    3.0756    0.8148    3.4954 C   0  0  0  0  0  0  0  0  0  0  0  0
    3.0411    0.5795    2.1384 C   0  0  0  0  0  0  0  0  0  0  0  0
    1.7915    0.9454    1.7479 N   0  0  0  0  0  0  0  0  0  0  0  0
    1.2638    0.9100    0.5415 N   0  0  0  0  0  0  0  0  0  0  0  0
    4.1439    0.0467    1.3327 C   0  0  0  0  0  0  0  0  0  0  0  0
    5.3517   -0.2650    1.9400 C   0  0  0  0  0  0  0  0  0  0  0  0
    6.4152   -0.7747    1.1870 C   0  0  0  0  0  0  0  0  0  0  0  0
    6.3124   -0.9864   -0.1690 C   0  0  0  0  0  0  0  0  0  0  0  0
    5.1184   -0.6805   -0.7817 C   0  0  0  0  0  0  0  0  0  0  0  0
    4.0732   -0.1759   -0.0220 C   0  0  0  0  0  0  0  0  0  0  0  0
    4.9146   -0.8573   -2.1411 O   0  0  0  0  0  0  0  0  0  0  0  0
    4.4199   -2.0387   -2.7211 C   0  0  0  0  0  0  0  0  0  0  0  0
    5.2093   -3.1317   -2.4774 F   0  0  0  0  0  0  0  0  0  0  0  0
    3.1432   -2.2734   -2.2044 F   0  0  0  0  0  0  0  0  0  0  0  0
    4.2404   -1.8007   -4.0709 F   0  0  0  0  0  0  0  0  0  0  0  0
   -4.8602   -0.9932    1.3278 H   0  0  0  0  0  0  0  0  0  0  0  0
   -6.1690   -2.0713    0.7036 H   0  0  0  0  0  0  0  0  0  0  0  0
   -6.3247   -0.2519    0.5529 H   0  0  0  0  0  0  0  0  0  0  0  0
   -6.2884    0.3452   -1.3877 H   0  0  0  0  0  0  0  0  0  0  0  0
   -5.2187   -0.2633   -2.6620 H   0  0  0  0  0  0  0  0  0  0  0  0
   -4.7532    1.8198   -0.4982 H   0  0  0  0  0  0  0  0  0  0  0  0
   -4.1731    1.7100   -2.1776 H   0  0  0  0  0  0  0  0  0  0  0  0
   -2.9742    0.3680    0.2324 H   0  0  0  0  0  0  0  0  0  0  0  0
   -3.1310   -0.6365   -2.5943 H   0  0  0  0  0  0  0  0  0  0  0  0
   -1.7559   -1.0289   -1.4830 H   0  0  0  0  0  0  0  0  0  0  0  0
   -3.6250   -2.7305   -1.1407 H   0  0  0  0  0  0  0  0  0  0  0  0
   -3.3549   -1.6861    0.2883 H   0  0  0  0  0  0  0  0  0  0  0  0
   -2.0379    1.6652   -2.4000 H   0  0  0  0  0  0  0  0  0  0  0  0
   -2.1049    2.5953   -0.8920 H   0  0  0  0  0  0  0  0  0  0  0  0
    0.0825    0.9401   -1.7753 H   0  0  0  0  0  0  0  0  0  0  0  0
   -1.7764    2.1061    1.1831 H   0  0  0  0  0  0  0  0  0  0  0  0
   -0.8162    2.1783    3.5065 H   0  0  0  0  0  0  0  0  0  0  0  0
    3.9492    0.6216    4.1116 H   0  0  0  0  0  0  0  0  0  0  0  0
    5.4486   -0.1052    3.0011 H   0  0  0  0  0  0  0  0  0  0  0  0
    7.3430   -1.0081    1.6874 H   0  0  0  0  0  0  0  0  0  0  0  0
    7.1234   -1.3781   -0.7592 H   0  0  0  0  0  0  0  0  0  0  0  0
    3.1461    0.0571   -0.5228 H   0  0  0  0  0  0  0  0  0  0  0  0
  1  2  1  0
  2  3  1  0
  3  4  1  0
  4  5  1  0
  5  6  1  0
  6  7  1  0
  2  7  1  0
  5  8  1  0
  8  9  1  0
  9 10  1  0
 10 11  1  0
 11 12  2  0
 12 13  1  0
 13 14  2  0
 14 15  1  0
 15 16  2  0
 16 17  1  0
 13 17  1  0
 17 18  1  0
 10 18  2  0
 16 19  1  0
 19 20  2  0
 20 21  1  0
 21 22  2  0
 22 23  1  0
 23 24  2  0
 19 24  1  0
 23 25  1  0
 25 26  1  0
 26 27  1  0
 26 28  1  0
 26 29  1  0
  1 30  1  0
  1 31  1  0
  1 32  1  0
  3 33  1  0
  3 34  1  0
  4 35  1  0
  4 36  1  0
  5 37  1  0
  6 38  1  0
  6 39  1  0
  7 40  1  0
  7 41  1  0
  8 42  1  0
  8 43  1  0
  9 44  1  0
 11 45  1  0
 12 46  1  0
 15 47  1  0
 20 48  1  0
 21 49  1  0
 22 50  1  0
 24 51  1  0
M  END

