347829168
     RDKit          3D

 51 55  0  0  0  0  0  0  0  0999 V2000
    7.3967    1.7024   -0.1706 C   0  0  0  0  0  0  0  0  0  0  0  0
    6.2999    2.7122   -0.1380 C   0  0  0  0  0  0  0  0  0  0  0  0
    5.0935    2.2898    0.5089 N   0  0  0  0  0  0  0  0  0  0  0  0
    4.3752    1.2442   -0.2151 C   0  0  0  0  0  0  0  0  0  0  0  0
    3.1645    0.9168    0.5534 C   0  0  0  0  0  0  0  0  0  0  0  0
    2.8479    1.5415    1.7307 C   0  0  0  0  0  0  0  0  0  0  0  0
    1.7392    1.2398    2.4294 N   0  0  0  0  0  0  0  0  0  0  0  0
    0.9229    0.2937    1.9484 C   0  0  0  0  0  0  0  0  0  0  0  0
    1.1551   -0.3891    0.7763 C   0  0  0  0  0  0  0  0  0  0  0  0
    2.2912   -0.0607    0.0859 C   0  0  0  0  0  0  0  0  0  0  0  0
    2.6300   -0.7089   -1.1777 C   0  0  0  0  0  0  0  0  0  0  0  0
    0.2418   -1.4058    0.3260 C   0  0  0  0  0  0  0  0  0  0  0  0
    0.7255   -2.6497   -0.0055 C   0  0  0  0  0  0  0  0  0  0  0  0
   -0.1024   -3.6771   -0.4550 C   0  0  0  0  0  0  0  0  0  0  0  0
   -1.4495   -3.4413   -0.5715 C   0  0  0  0  0  0  0  0  0  0  0  0
   -1.9218   -2.2050   -0.2407 C   0  0  0  0  0  0  0  0  0  0  0  0
   -1.1160   -1.1800    0.2047 C   0  0  0  0  0  0  0  0  0  0  0  0
   -3.2835   -2.2561   -0.4520 C   0  0  0  0  0  0  0  0  0  0  0  0
   -3.5613   -3.4936   -0.8905 N   0  0  0  0  0  0  0  0  0  0  0  0
   -2.4644   -4.2238   -0.9689 N   0  0  0  0  0  0  0  0  0  0  0  0
   -4.2362   -1.1485   -0.2318 C   0  0  0  0  0  0  0  0  0  0  0  0
   -5.5544   -1.2439   -0.4514 N   0  0  0  0  0  0  0  0  0  0  0  0
   -6.0421   -0.0289   -0.1309 C   0  0  0  0  0  0  0  0  0  0  0  0
   -7.3177    0.4994   -0.1445 C   0  0  0  0  0  0  0  0  0  0  0  0
   -7.5389    1.8039    0.2425 C   0  0  0  0  0  0  0  0  0  0  0  0
   -6.5244    2.6369    0.6553 C   0  0  0  0  0  0  0  0  0  0  0  0
   -5.2474    2.0809    0.6601 C   0  0  0  0  0  0  0  0  0  0  0  0
   -5.0217    0.7956    0.2801 C   0  0  0  0  0  0  0  0  0  0  0  0
   -3.8957    0.0721    0.2091 N   0  0  0  0  0  0  0  0  0  0  0  0
   -4.1806    2.8364    1.0561 F   0  0  0  0  0  0  0  0  0  0  0  0
   -8.8221    2.2753    0.2098 F   0  0  0  0  0  0  0  0  0  0  0  0
    8.0695    1.8749   -1.0619 H   0  0  0  0  0  0  0  0  0  0  0  0
    7.0811    0.6619   -0.0909 H   0  0  0  0  0  0  0  0  0  0  0  0
    8.0767    1.9052    0.7080 H   0  0  0  0  0  0  0  0  0  0  0  0
    6.6561    3.6127    0.4433 H   0  0  0  0  0  0  0  0  0  0  0  0
    6.0915    3.0846   -1.1753 H   0  0  0  0  0  0  0  0  0  0  0  0
    5.3812    1.9478    1.4638 H   0  0  0  0  0  0  0  0  0  0  0  0
    4.0683    1.5715   -1.2119 H   0  0  0  0  0  0  0  0  0  0  0  0
    5.0863    0.3749   -0.2694 H   0  0  0  0  0  0  0  0  0  0  0  0
    3.4997    2.3169    2.1414 H   0  0  0  0  0  0  0  0  0  0  0  0
    0.0372    0.0637    2.5217 H   0  0  0  0  0  0  0  0  0  0  0  0
    3.3543   -1.5631   -1.0853 H   0  0  0  0  0  0  0  0  0  0  0  0
    2.9931    0.0141   -1.9549 H   0  0  0  0  0  0  0  0  0  0  0  0
    1.7075   -1.1351   -1.6200 H   0  0  0  0  0  0  0  0  0  0  0  0
    1.7798   -2.9080    0.0668 H   0  0  0  0  0  0  0  0  0  0  0  0
    0.3186   -4.6454   -0.7069 H   0  0  0  0  0  0  0  0  0  0  0  0
   -1.4796   -0.1990    0.4687 H   0  0  0  0  0  0  0  0  0  0  0  0
   -2.4212   -5.2305   -1.2871 H   0  0  0  0  0  0  0  0  0  0  0  0
   -6.1057   -2.0661   -0.7944 H   0  0  0  0  0  0  0  0  0  0  0  0
   -8.1137   -0.1572   -0.4694 H   0  0  0  0  0  0  0  0  0  0  0  0
   -6.6837    3.6476    0.9565 H   0  0  0  0  0  0  0  0  0  0  0  0
  1  2  1  0
  2  3  1  0
  3  4  1  0
  4  5  1  0
  5  6  2  0
  6  7  1  0
  7  8  2  0
  8  9  1  0
  9 10  2  0
  5 10  1  0
 10 11  1  0
  9 12  1  0
 12 13  2  0
 13 14  1  0
 14 15  2  0
 15 16  1  0
 16 17  2  0
 12 17  1  0
 16 18  1  0
 18 19  2  0
 19 20  1  0
 15 20  1  0
 18 21  1  0
 21 22  1  0
 22 23  1  0
 23 24  2  0
 24 25  1  0
 25 26  2  0
 26 27  1  0
 27 28  2  0
 23 28  1  0
 28 29  1  0
 21 29  2  0
 27 30  1  0
 25 31  1  0
  1 32  1  0
  1 33  1  0
  1 34  1  0
  2 35  1  0
  2 36  1  0
  3 37  1  0
  4 38  1  0
  4 39  1  0
  6 40  1  0
  8 41  1  0
 11 42  1  0
 11 43  1  0
 11 44  1  0
 13 45  1  0
 14 46  1  0
 17 47  1  0
 20 48  1  0
 22 49  1  0
 24 50  1  0
 26 51  1  0
M  END

