347828994
     RDKit          3D

 30 31  0  0  1  0  0  0  0  0999 V2000
   -2.1969    2.7550   -0.1121 C   0  0  0  0  0  0  0  0  0  0  0  0
   -1.3882    1.5493   -0.2653 N   0  0  0  0  0  0  0  0  0  0  0  0
   -0.2726    1.3897   -0.9884 C   0  0  0  0  0  0  0  0  0  0  0  0
    0.1900    0.0653   -0.8601 C   0  0  0  0  0  0  0  0  0  0  0  0
   -0.7156   -0.5296   -0.0283 C   0  0  0  0  0  0  0  0  0  0  0  0
   -1.7002    0.3874    0.3466 C   0  0  0  0  0  0  0  0  0  0  0  0
   -2.7393    0.0317    1.1812 C   0  0  0  0  0  0  0  0  0  0  0  0
   -2.8512   -1.2468    1.6807 C   0  0  0  0  0  0  0  0  0  0  0  0
   -1.9007   -2.1634    1.3270 C   0  0  0  0  0  0  0  0  0  0  0  0
   -0.8613   -1.7994    0.4898 C   0  0  0  0  0  0  0  0  0  0  0  0
    1.4067   -0.4732   -1.4794 C   0  0  0  0  0  0  0  0  0  0  0  0
    2.6256   -0.4894   -0.6244 C   0  0  2  0  0  0  0  0  0  0  0  0
    2.5555   -1.2917    0.6009 C   0  0  0  0  0  0  0  0  0  0  0  0
    2.4821   -2.5390    0.5526 O   0  0  0  0  0  0  0  0  0  0  0  0
    2.5694   -0.6786    1.8389 O   0  0  0  0  0  0  0  0  0  0  0  0
    3.0190    0.8753   -0.2485 N   0  0  0  0  0  0  0  0  0  0  0  0
   -1.8211    3.5408   -0.8035 H   0  0  0  0  0  0  0  0  0  0  0  0
   -3.2631    2.5552   -0.3866 H   0  0  0  0  0  0  0  0  0  0  0  0
   -2.1873    3.1157    0.9318 H   0  0  0  0  0  0  0  0  0  0  0  0
    0.1796    2.1674   -1.5681 H   0  0  0  0  0  0  0  0  0  0  0  0
   -3.4952    0.7461    1.4665 H   0  0  0  0  0  0  0  0  0  0  0  0
   -3.6796   -1.5315    2.3467 H   0  0  0  0  0  0  0  0  0  0  0  0
   -1.9682   -3.1832    1.7097 H   0  0  0  0  0  0  0  0  0  0  0  0
   -0.1222   -2.5219    0.1963 H   0  0  0  0  0  0  0  0  0  0  0  0
    1.1948   -1.5467   -1.7566 H   0  0  0  0  0  0  0  0  0  0  0  0
    1.6312    0.0079   -2.4677 H   0  0  0  0  0  0  0  0  0  0  0  0
    3.4600   -0.8777   -1.2434 H   0  0  0  0  0  0  0  0  0  0  0  0
    3.4566   -0.2994    2.2018 H   0  0  0  0  0  0  0  0  0  0  0  0
    2.4152    1.2217    0.5470 H   0  0  0  0  0  0  0  0  0  0  0  0
    3.9769    0.7629    0.1817 H   0  0  0  0  0  0  0  0  0  0  0  0
  1  2  1  0
  2  3  1  0
  3  4  2  0
  4  5  1  0
  5  6  2  0
  2  6  1  0
  6  7  1  0
  7  8  2  0
  8  9  1  0
  9 10  2  0
  5 10  1  0
  4 11  1  0
 11 12  1  0
 12 13  1  0
 13 14  2  0
 13 15  1  0
 12 16  1  0
  1 17  1  0
  1 18  1  0
  1 19  1  0
  3 20  1  0
  7 21  1  0
  8 22  1  0
  9 23  1  0
 10 24  1  0
 11 25  1  0
 11 26  1  0
 12 27  1  6
 15 28  1  0
 16 29  1  0
 16 30  1  0
M  END

