347828279
     RDKit          3D

 54 58  0  0  1  0  0  0  0  0999 V2000
   -0.1071   -1.0583   -0.6269 C   0  0  0  0  0  0  0  0  0  0  0  0
   -1.2155   -0.4351   -0.1883 N   0  0  0  0  0  0  0  0  0  0  0  0
   -2.4416   -0.9465   -0.3976 C   0  0  0  0  0  0  0  0  0  0  0  0
   -2.5418   -2.1471   -1.0849 C   0  0  0  0  0  0  0  0  0  0  0  0
   -1.4106   -2.7882   -1.5355 C   0  0  0  0  0  0  0  0  0  0  0  0
   -0.2185   -2.2223   -1.2923 N   0  0  0  0  0  0  0  0  0  0  0  0
   -4.5496   -1.5053   -0.5720 N   0  0  0  0  0  0  0  0  0  0  0  0
   -3.7067   -0.5889   -0.1015 N   0  0  0  0  0  0  0  0  0  0  0  0
   -3.8755   -2.4914   -1.1899 C   0  0  0  0  0  0  0  0  0  0  0  0
   -1.5050   -3.8847   -2.1630 O   0  0  0  0  0  0  0  0  0  0  0  0
   -5.4962    1.3974    2.5160 C   0  0  0  0  0  0  0  0  0  0  0  0
   -4.5030    0.3324    2.0374 C   0  0  0  0  0  0  0  0  0  0  0  0
   -4.0833    0.6125    0.6197 C   0  0  0  0  0  0  0  0  0  0  0  0
   -5.2655    1.2956   -0.0706 C   0  0  0  0  0  0  0  0  0  0  0  0
   -6.5203    0.7385    0.5666 C   0  0  0  0  0  0  0  0  0  0  0  0
   -6.6877    1.3198    1.8353 O   0  0  0  0  0  0  0  0  0  0  0  0
    3.2642   -0.0651   -1.3354 N   0  0  0  0  0  0  0  0  0  0  0  0
    1.8893   -0.2552   -1.7097 C   0  0  0  0  0  0  0  0  0  0  0  0
    1.2171   -0.4477   -0.3669 C   0  0  2  0  0  0  0  0  0  0  0  0
    2.1682   -1.4215    0.2937 C   0  0  1  0  0  0  0  0  0  0  0  0
    3.5067   -0.9121   -0.2086 C   0  0  0  0  0  0  0  0  0  0  0  0
    2.1569   -1.3092    1.7902 C   0  0  0  0  0  0  0  0  0  0  0  0
    3.4470    1.3074   -0.9610 C   0  0  0  0  0  0  0  0  0  0  0  0
    4.8451    1.5978   -0.5770 C   0  0  0  0  0  0  0  0  0  0  0  0
    5.2677    1.6227    0.6918 N   0  0  0  0  0  0  0  0  0  0  0  0
    6.5300    1.8839    1.0585 C   0  0  0  0  0  0  0  0  0  0  0  0
    7.4730    2.1468    0.0859 C   0  0  0  0  0  0  0  0  0  0  0  0
    7.0418    2.1216   -1.2146 C   0  0  0  0  0  0  0  0  0  0  0  0
    5.7658    1.8546   -1.5285 N   0  0  0  0  0  0  0  0  0  0  0  0
    0.6268   -2.7220   -1.6409 H   0  0  0  0  0  0  0  0  0  0  0  0
   -4.3192   -3.3718   -1.6678 H   0  0  0  0  0  0  0  0  0  0  0  0
   -5.6850    1.1893    3.5807 H   0  0  0  0  0  0  0  0  0  0  0  0
   -5.0221    2.4017    2.4381 H   0  0  0  0  0  0  0  0  0  0  0  0
   -4.9959   -0.6332    2.1499 H   0  0  0  0  0  0  0  0  0  0  0  0
   -3.6274    0.4151    2.7125 H   0  0  0  0  0  0  0  0  0  0  0  0
   -3.2462    1.3454    0.5871 H   0  0  0  0  0  0  0  0  0  0  0  0
   -5.1929    2.3955    0.0495 H   0  0  0  0  0  0  0  0  0  0  0  0
   -5.2100    1.0338   -1.1330 H   0  0  0  0  0  0  0  0  0  0  0  0
   -7.4071    0.9493   -0.0641 H   0  0  0  0  0  0  0  0  0  0  0  0
   -6.4022   -0.3476    0.6997 H   0  0  0  0  0  0  0  0  0  0  0  0
    1.7512   -1.1666   -2.3292 H   0  0  0  0  0  0  0  0  0  0  0  0
    1.4431    0.6363   -2.1927 H   0  0  0  0  0  0  0  0  0  0  0  0
    1.1058    0.4840    0.1848 H   0  0  0  0  0  0  0  0  0  0  0  0
    1.9988   -2.4361   -0.0715 H   0  0  0  0  0  0  0  0  0  0  0  0
    4.1374   -1.7871   -0.5099 H   0  0  0  0  0  0  0  0  0  0  0  0
    4.0606   -0.3983    0.5862 H   0  0  0  0  0  0  0  0  0  0  0  0
    3.1884   -1.2117    2.2029 H   0  0  0  0  0  0  0  0  0  0  0  0
    1.7395   -2.2375    2.2739 H   0  0  0  0  0  0  0  0  0  0  0  0
    1.5752   -0.4205    2.1161 H   0  0  0  0  0  0  0  0  0  0  0  0
    3.1463    1.9555   -1.8344 H   0  0  0  0  0  0  0  0  0  0  0  0
    2.7876    1.5919   -0.1190 H   0  0  0  0  0  0  0  0  0  0  0  0
    6.8532    1.8996    2.0887 H   0  0  0  0  0  0  0  0  0  0  0  0
    8.4974    2.3599    0.3616 H   0  0  0  0  0  0  0  0  0  0  0  0
    7.7519    2.3229   -2.0072 H   0  0  0  0  0  0  0  0  0  0  0  0
  1  2  2  0
  2  3  1  0
  3  4  2  0
  4  5  1  0
  5  6  1  0
  1  6  1  0
  7  8  1  0
  7  9  2  0
  3  8  1  0
  4  9  1  0
  5 10  2  0
 11 12  1  0
 12 13  1  0
 13 14  1  0
 14 15  1  0
 15 16  1  0
 11 16  1  0
  8 13  1  0
 17 18  1  0
 18 19  1  0
 19 20  1  0
 20 21  1  0
 17 21  1  0
 20 22  1  0
 19  1  1  0
 17 23  1  0
 23 24  1  0
 24 25  2  0
 25 26  1  0
 26 27  2  0
 27 28  1  0
 28 29  2  0
 24 29  1  0
  6 30  1  0
  9 31  1  0
 11 32  1  0
 11 33  1  0
 12 34  1  0
 12 35  1  0
 13 36  1  0
 14 37  1  0
 14 38  1  0
 15 39  1  0
 15 40  1  0
 18 41  1  0
 18 42  1  0
 19 43  1  1
 20 44  1  1
 21 45  1  0
 21 46  1  0
 22 47  1  0
 22 48  1  0
 22 49  1  0
 23 50  1  0
 23 51  1  0
 26 52  1  0
 27 53  1  0
 28 54  1  0
M  END

