347829223
     RDKit          3D

 27 26  0  0  1  0  0  0  0  0999 V2000
    2.6019    0.5777    0.7431 C   0  0  0  0  0  0  0  0  0  0  0  0
    2.1672   -0.3285   -0.3862 C   0  0  0  0  0  0  0  0  0  0  0  0
    0.7958   -0.8965   -0.1764 C   0  0  0  0  0  0  0  0  0  0  0  0
    0.4803   -1.7788   -1.3724 C   0  0  0  0  0  0  0  0  0  0  0  0
   -0.2701    0.0958    0.1296 C   0  0  0  0  0  0  0  0  0  0  0  0
   -1.5695   -0.6679    0.3102 C   0  0  0  0  0  0  0  0  0  0  0  0
   -2.7242    0.2260    0.6240 C   0  0  0  0  0  0  0  0  0  0  0  0
   -0.3865    1.1846   -0.8394 C   0  0  0  0  0  0  0  0  0  0  0  0
    0.3728    1.2031   -1.8379 O   0  0  0  0  0  0  0  0  0  0  0  0
   -1.3225    2.2473   -0.7247 N   0  0  0  0  0  0  0  0  0  0  0  0
    2.0229    0.3833    1.6528 H   0  0  0  0  0  0  0  0  0  0  0  0
    2.5080    1.6550    0.4888 H   0  0  0  0  0  0  0  0  0  0  0  0
    3.6718    0.4171    0.9992 H   0  0  0  0  0  0  0  0  0  0  0  0
    2.3512    0.0849   -1.3909 H   0  0  0  0  0  0  0  0  0  0  0  0
    2.8658   -1.2187   -0.3266 H   0  0  0  0  0  0  0  0  0  0  0  0
    0.8826   -1.6067    0.6937 H   0  0  0  0  0  0  0  0  0  0  0  0
    0.1013   -1.1967   -2.2370 H   0  0  0  0  0  0  0  0  0  0  0  0
   -0.1720   -2.5928   -1.0521 H   0  0  0  0  0  0  0  0  0  0  0  0
    1.4498   -2.2445   -1.7095 H   0  0  0  0  0  0  0  0  0  0  0  0
   -0.0309    0.5476    1.1189 H   0  0  0  0  0  0  0  0  0  0  0  0
   -1.8345   -1.2722   -0.5749 H   0  0  0  0  0  0  0  0  0  0  0  0
   -1.4196   -1.3859    1.1446 H   0  0  0  0  0  0  0  0  0  0  0  0
   -3.5491   -0.4369    1.0195 H   0  0  0  0  0  0  0  0  0  0  0  0
   -3.1175    0.7517   -0.2704 H   0  0  0  0  0  0  0  0  0  0  0  0
   -2.5244    0.9461    1.4405 H   0  0  0  0  0  0  0  0  0  0  0  0
   -1.8890    2.6011   -1.5327 H   0  0  0  0  0  0  0  0  0  0  0  0
   -1.4616    2.7047    0.2006 H   0  0  0  0  0  0  0  0  0  0  0  0
  1  2  1  0
  2  3  1  0
  3  4  1  0
  3  5  1  0
  5  6  1  0
  6  7  1  0
  5  8  1  0
  8  9  2  0
  8 10  1  0
  1 11  1  0
  1 12  1  0
  1 13  1  0
  2 14  1  0
  2 15  1  0
  3 16  1  0
  4 17  1  0
  4 18  1  0
  4 19  1  0
  5 20  1  0
  6 21  1  0
  6 22  1  0
  7 23  1  0
  7 24  1  0
  7 25  1  0
 10 26  1  0
 10 27  1  0
M  END

