347829171
     RDKit          3D

 38 40  0  0  0  0  0  0  0  0999 V2000
   -0.7509    2.5976    0.3210 C   0  0  0  0  0  0  0  0  0  0  0  0
   -1.5095    1.3175    0.2615 C   0  0  0  0  0  0  0  0  0  0  0  0
   -2.9048    1.4318    0.2006 C   0  0  0  0  0  0  0  0  0  0  0  0
   -3.6831    0.3030    0.1432 C   0  0  0  0  0  0  0  0  0  0  0  0
   -5.0764    0.3723    0.0815 C   0  0  0  0  0  0  0  0  0  0  0  0
   -5.8159   -0.7663    0.0257 C   0  0  0  0  0  0  0  0  0  0  0  0
   -5.2271   -2.0208    0.0277 C   0  0  0  0  0  0  0  0  0  0  0  0
   -3.8522   -2.0625    0.0891 C   0  0  0  0  0  0  0  0  0  0  0  0
   -3.0637   -0.9356    0.1469 C   0  0  0  0  0  0  0  0  0  0  0  0
   -1.6673   -1.0351    0.2082 C   0  0  0  0  0  0  0  0  0  0  0  0
   -0.8985    0.0934    0.2652 C   0  0  0  0  0  0  0  0  0  0  0  0
    0.4676   -0.0078    0.3250 O   0  0  0  0  0  0  0  0  0  0  0  0
    1.3112   -0.0460   -0.7492 C   0  0  0  0  0  0  0  0  0  0  0  0
    0.8313    0.0143   -1.9038 O   0  0  0  0  0  0  0  0  0  0  0  0
    2.7675   -0.1569   -0.5412 C   0  0  0  0  0  0  0  0  0  0  0  0
    3.2952   -0.2230    0.7285 C   0  0  0  0  0  0  0  0  0  0  0  0
    4.6252   -0.3257    0.9789 C   0  0  0  0  0  0  0  0  0  0  0  0
    5.5013   -0.3667   -0.0850 C   0  0  0  0  0  0  0  0  0  0  0  0
    5.0096   -0.3027   -1.3795 C   0  0  0  0  0  0  0  0  0  0  0  0
    3.6424   -0.1979   -1.6051 C   0  0  0  0  0  0  0  0  0  0  0  0
    6.8833   -0.4739    0.1965 N   0  0  0  0  0  0  0  0  0  0  0  0
   -1.1371   -2.3118    0.2071 O   0  0  0  0  0  0  0  0  0  0  0  0
   -3.5326    2.6665    0.1965 O   0  0  0  0  0  0  0  0  0  0  0  0
   -1.1217    3.1937    1.1884 H   0  0  0  0  0  0  0  0  0  0  0  0
   -0.9725    3.2290   -0.5802 H   0  0  0  0  0  0  0  0  0  0  0  0
    0.3205    2.4508    0.4466 H   0  0  0  0  0  0  0  0  0  0  0  0
   -5.5429    1.3520    0.0797 H   0  0  0  0  0  0  0  0  0  0  0  0
   -6.8970   -0.6923   -0.0218 H   0  0  0  0  0  0  0  0  0  0  0  0
   -5.8289   -2.9140   -0.0171 H   0  0  0  0  0  0  0  0  0  0  0  0
   -3.3743   -3.0451    0.0914 H   0  0  0  0  0  0  0  0  0  0  0  0
    2.5651   -0.1873    1.5465 H   0  0  0  0  0  0  0  0  0  0  0  0
    4.9971   -0.3753    2.0148 H   0  0  0  0  0  0  0  0  0  0  0  0
    5.7175   -0.3368   -2.1975 H   0  0  0  0  0  0  0  0  0  0  0  0
    3.2876   -0.1499   -2.6228 H   0  0  0  0  0  0  0  0  0  0  0  0
    7.2646   -1.3837    0.5112 H   0  0  0  0  0  0  0  0  0  0  0  0
    7.4922    0.3371    0.0895 H   0  0  0  0  0  0  0  0  0  0  0  0
   -0.1663   -2.5276    0.2468 H   0  0  0  0  0  0  0  0  0  0  0  0
   -2.9569    3.4856    0.2386 H   0  0  0  0  0  0  0  0  0  0  0  0
  1  2  1  0
  2  3  2  0
  3  4  1  0
  4  5  2  0
  5  6  1  0
  6  7  2  0
  7  8  1  0
  8  9  2  0
  4  9  1  0
  9 10  1  0
 10 11  2  0
  2 11  1  0
 11 12  1  0
 12 13  1  0
 13 14  2  0
 13 15  1  0
 15 16  2  0
 16 17  1  0
 17 18  2  0
 18 19  1  0
 19 20  2  0
 15 20  1  0
 18 21  1  0
 10 22  1  0
  3 23  1  0
  1 24  1  0
  1 25  1  0
  1 26  1  0
  5 27  1  0
  6 28  1  0
  7 29  1  0
  8 30  1  0
 16 31  1  0
 17 32  1  0
 19 33  1  0
 20 34  1  0
 21 35  1  0
 21 36  1  0
 22 37  1  0
 23 38  1  0
M  END

