347828964
     RDKit          3D

 33 33  0  0  1  0  0  0  0  0999 V2000
   -2.8683   -0.3242   -0.9003 C   0  0  0  0  0  0  0  0  0  0  0  0
   -1.8702   -0.1728    0.0514 C   0  0  0  0  0  0  0  0  0  0  0  0
   -2.2508    0.3717    1.2569 C   0  0  0  0  0  0  0  0  0  0  0  0
   -3.5549    0.7498    1.5128 C   0  0  0  0  0  0  0  0  0  0  0  0
   -4.5536    0.6024    0.5720 C   0  0  0  0  0  0  0  0  0  0  0  0
   -4.1898    0.0600   -0.6373 C   0  0  0  0  0  0  0  0  0  0  0  0
   -5.8726    0.9851    0.8327 O   0  0  0  0  0  0  0  0  0  0  0  0
   -5.1500   -0.1118   -1.6214 O   0  0  0  0  0  0  0  0  0  0  0  0
   -2.5349   -0.8671   -2.1283 O   0  0  0  0  0  0  0  0  0  0  0  0
   -0.4702   -0.5933   -0.2571 C   0  0  0  0  0  0  0  0  0  0  0  0
    0.3904   -0.3432    0.8639 N   0  0  0  0  0  0  0  0  0  0  0  0
    1.6857   -0.7489    0.5598 N   0  0  0  0  0  0  0  0  0  0  0  0
    2.4626   -0.0148   -0.3703 C   0  0  0  0  0  0  0  0  0  0  0  0
    3.8522   -0.4257   -0.7180 C   0  0  0  0  0  0  0  0  0  0  0  0
    1.9921    1.0090   -0.9278 O   0  0  0  0  0  0  0  0  0  0  0  0
    4.3990    0.4756   -1.6782 N   0  0  0  0  0  0  0  0  0  0  0  0
    4.7190   -0.4934    0.5282 C   0  0  0  0  0  0  0  0  0  0  0  0
    4.8375    0.7434    1.1387 O   0  0  0  0  0  0  0  0  0  0  0  0
   -1.4775    0.4969    2.0143 H   0  0  0  0  0  0  0  0  0  0  0  0
   -3.8469    1.1796    2.4667 H   0  0  0  0  0  0  0  0  0  0  0  0
   -6.1343    1.3790    1.7167 H   0  0  0  0  0  0  0  0  0  0  0  0
   -6.0950    0.1506   -1.4679 H   0  0  0  0  0  0  0  0  0  0  0  0
   -1.5893   -1.1344   -2.3033 H   0  0  0  0  0  0  0  0  0  0  0  0
   -0.0711   -0.0417   -1.1323 H   0  0  0  0  0  0  0  0  0  0  0  0
   -0.4647   -1.6647   -0.5558 H   0  0  0  0  0  0  0  0  0  0  0  0
    0.4043    0.6493    1.1669 H   0  0  0  0  0  0  0  0  0  0  0  0
    2.0669   -1.5924    1.0263 H   0  0  0  0  0  0  0  0  0  0  0  0
    3.8496   -1.4637   -1.1360 H   0  0  0  0  0  0  0  0  0  0  0  0
    3.8710    0.3504   -2.5926 H   0  0  0  0  0  0  0  0  0  0  0  0
    4.2795    1.4681   -1.3414 H   0  0  0  0  0  0  0  0  0  0  0  0
    5.7403   -0.7716    0.1802 H   0  0  0  0  0  0  0  0  0  0  0  0
    4.3247   -1.2844    1.1965 H   0  0  0  0  0  0  0  0  0  0  0  0
    4.1193    1.3772    0.8207 H   0  0  0  0  0  0  0  0  0  0  0  0
  1  9  1  0
  4  5  2  0
  2 10  1  0
  2  3  2  0
 10 11  1  0
  5  6  1  0
 11 12  1  0
  1  6  2  0
 12 13  1  0
  1  2  1  0
 13 14  1  0
  5  7  1  0
 13 15  2  0
  3  4  1  0
 14 16  1  0
  6  8  1  0
 14 17  1  0
 17 18  1  0
  3 19  1  0
  4 20  1  0
  7 21  1  0
  8 22  1  0
  9 23  1  0
 10 24  1  0
 10 25  1  0
 11 26  1  0
 12 27  1  0
 14 28  1  0
 16 29  1  0
 16 30  1  0
 17 31  1  0
 17 32  1  0
 18 33  1  0
M  END

