347829233
     RDKit          3D

 64 69  0  0  1  0  0  0  0  0999 V2000
    1.5785    0.5953    0.0917 C   0  0  0  0  0  0  0  0  0  0  0  0
    2.9541    0.3112    0.1420 C   0  0  0  0  0  0  0  0  0  0  0  0
    3.4250   -0.9730    0.1916 C   0  0  0  0  0  0  0  0  0  0  0  0
    2.4338   -1.9754    0.1890 C   0  0  0  0  0  0  0  0  0  0  0  0
    1.0949   -1.6912    0.1399 C   0  0  0  0  0  0  0  0  0  0  0  0
    0.6357   -0.3979    0.0900 C   0  0  0  0  0  0  0  0  0  0  0  0
   -0.7839   -0.0795    0.0374 C   0  0  0  0  0  0  0  0  0  0  0  0
   -1.2041    1.1967   -0.0106 N   0  0  0  0  0  0  0  0  0  0  0  0
   -2.5194    1.5417   -0.0606 C   0  0  0  0  0  0  0  0  0  0  0  0
   -3.3889    0.5172   -0.0594 N   0  0  0  0  0  0  0  0  0  0  0  0
   -3.0238   -0.7659   -0.0130 C   0  0  0  0  0  0  0  0  0  0  0  0
   -1.7311   -1.0530    0.0348 N   0  0  0  0  0  0  0  0  0  0  0  0
   -4.0168   -1.7842   -0.0158 N   0  0  0  0  0  0  0  0  0  0  0  0
   -3.8481   -3.2209    0.0297 C   0  0  2  0  0  0  0  0  0  0  0  0
   -4.7864   -3.6604   -1.0959 C   0  0  0  0  0  0  0  0  0  0  0  0
   -5.8550   -2.5802   -1.1497 C   0  0  0  0  0  0  0  0  0  0  0  0
   -5.4605   -1.5801   -0.0671 C   0  0  1  0  0  0  0  0  0  0  0  0
   -6.0076   -2.0354    1.2693 C   0  0  0  0  0  0  0  0  0  0  0  0
   -5.0428   -2.6686    2.0451 O   0  0  0  0  0  0  0  0  0  0  0  0
   -4.4706   -3.7118    1.3206 C   0  0  0  0  0  0  0  0  0  0  0  0
   -2.9277    2.9020   -0.1103 N   0  0  0  0  0  0  0  0  0  0  0  0
   -1.9155    3.9372   -0.1090 C   0  0  0  0  0  0  0  0  0  0  0  0
   -2.5505    5.3164   -0.2576 C   0  0  0  0  0  0  0  0  0  0  0  0
   -3.6399    5.3290    0.6315 O   0  0  0  0  0  0  0  0  0  0  0  0
   -4.6677    4.6288    0.0046 C   0  0  0  0  0  0  0  0  0  0  0  0
   -4.3520    3.1618   -0.1596 C   0  0  0  0  0  0  0  0  0  0  0  0
    4.7821   -1.3389    0.2264 N   0  0  0  0  0  0  0  0  0  0  0  0
    5.9115   -0.5111   -0.0177 C   0  0  0  0  0  0  0  0  0  0  0  0
    5.6875    0.6774   -0.3006 O   0  0  0  0  0  0  0  0  0  0  0  0
    7.2159   -1.0163    0.0584 N   0  0  0  0  0  0  0  0  0  0  0  0
    8.4035   -0.3184   -0.1575 C   0  0  0  0  0  0  0  0  0  0  0  0
    9.6473   -0.9629    0.0203 C   0  0  0  0  0  0  0  0  0  0  0  0
   10.8313   -0.3133   -0.1855 C   0  0  0  0  0  0  0  0  0  0  0  0
   10.7890    0.9706   -0.5663 N   0  0  0  0  0  0  0  0  0  0  0  0
    9.6597    1.6409   -0.7531 C   0  0  0  0  0  0  0  0  0  0  0  0
    8.4489    0.9850   -0.5451 C   0  0  0  0  0  0  0  0  0  0  0  0
    1.3036    1.6528    0.0539 H   0  0  0  0  0  0  0  0  0  0  0  0
    3.6413    1.1539    0.1500 H   0  0  0  0  0  0  0  0  0  0  0  0
    2.8108   -3.0037    0.2283 H   0  0  0  0  0  0  0  0  0  0  0  0
    0.4001   -2.5381    0.1421 H   0  0  0  0  0  0  0  0  0  0  0  0
   -2.8238   -3.5561   -0.1179 H   0  0  0  0  0  0  0  0  0  0  0  0
   -5.3005   -4.6091   -0.7986 H   0  0  0  0  0  0  0  0  0  0  0  0
   -4.2451   -3.7668   -2.0446 H   0  0  0  0  0  0  0  0  0  0  0  0
   -5.7982   -2.1178   -2.1427 H   0  0  0  0  0  0  0  0  0  0  0  0
   -6.8644   -2.9929   -0.9696 H   0  0  0  0  0  0  0  0  0  0  0  0
   -5.7167   -0.5528   -0.3210 H   0  0  0  0  0  0  0  0  0  0  0  0
   -6.2723   -1.0922    1.8272 H   0  0  0  0  0  0  0  0  0  0  0  0
   -6.9381   -2.6079    1.1891 H   0  0  0  0  0  0  0  0  0  0  0  0
   -5.2758   -4.4545    1.1424 H   0  0  0  0  0  0  0  0  0  0  0  0
   -3.7242   -4.2218    1.9676 H   0  0  0  0  0  0  0  0  0  0  0  0
   -1.3556    3.9662    0.8600 H   0  0  0  0  0  0  0  0  0  0  0  0
   -1.2098    3.8361   -0.9577 H   0  0  0  0  0  0  0  0  0  0  0  0
   -1.8584    6.0967    0.0577 H   0  0  0  0  0  0  0  0  0  0  0  0
   -2.9658    5.4490   -1.2782 H   0  0  0  0  0  0  0  0  0  0  0  0
   -4.8358    5.1103   -0.9802 H   0  0  0  0  0  0  0  0  0  0  0  0
   -5.6300    4.7265    0.5693 H   0  0  0  0  0  0  0  0  0  0  0  0
   -4.6767    2.8724   -1.2012 H   0  0  0  0  0  0  0  0  0  0  0  0
   -4.9034    2.5209    0.5336 H   0  0  0  0  0  0  0  0  0  0  0  0
    5.0088   -2.3531    0.4653 H   0  0  0  0  0  0  0  0  0  0  0  0
    7.2877   -2.0654    0.3135 H   0  0  0  0  0  0  0  0  0  0  0  0
    9.6364   -1.9870    0.3246 H   0  0  0  0  0  0  0  0  0  0  0  0
   11.7845   -0.8004   -0.0513 H   0  0  0  0  0  0  0  0  0  0  0  0
    9.6462    2.6743   -1.0597 H   0  0  0  0  0  0  0  0  0  0  0  0
    7.5689    1.5874   -0.7171 H   0  0  0  0  0  0  0  0  0  0  0  0
  1  2  2  0
  2  3  1  0
  3  4  2  0
  4  5  1  0
  5  6  2  0
  1  6  1  0
  6  7  1  0
  7  8  2  0
  8  9  1  0
  9 10  2  0
 10 11  1  0
 11 12  2  0
  7 12  1  0
 11 13  1  0
 14 13  1  0
 14 15  1  0
 15 16  1  0
 16 17  1  0
 17 13  1  0
 17 18  1  0
 18 19  1  0
 19 20  1  0
 14 20  1  0
  9 21  1  0
 21 22  1  0
 22 23  1  0
 23 24  1  0
 24 25  1  0
 25 26  1  0
 21 26  1  0
  3 27  1  0
 27 28  1  0
 28 29  2  0
 28 30  1  0
 30 31  1  0
 31 32  2  0
 32 33  1  0
 33 34  2  0
 34 35  1  0
 35 36  2  0
 31 36  1  0
  1 37  1  0
  2 38  1  0
  4 39  1  0
  5 40  1  0
 14 41  1  6
 15 42  1  0
 15 43  1  0
 16 44  1  0
 16 45  1  0
 17 46  1  6
 18 47  1  0
 18 48  1  0
 20 49  1  0
 20 50  1  0
 22 51  1  0
 22 52  1  0
 23 53  1  0
 23 54  1  0
 25 55  1  0
 25 56  1  0
 26 57  1  0
 26 58  1  0
 27 59  1  0
 30 60  1  0
 32 61  1  0
 33 62  1  0
 35 63  1  0
 36 64  1  0
M  END

