347828245
     RDKit          3D

 63 69  0  0  0  0  0  0  0  0999 V2000
   -7.5145    0.1829    2.6859 C   0  0  0  0  0  0  0  0  0  0  0  0
   -7.3941   -0.5288    1.5165 C   0  0  0  0  0  0  0  0  0  0  0  0
   -6.3638   -0.2267    0.6186 C   0  0  0  0  0  0  0  0  0  0  0  0
   -5.4741    0.7505    0.8633 N   0  0  0  0  0  0  0  0  0  0  0  0
   -5.5871    1.4455    2.0003 C   0  0  0  0  0  0  0  0  0  0  0  0
   -6.6020    1.1797    2.9302 C   0  0  0  0  0  0  0  0  0  0  0  0
   -4.5898    2.3437    2.0026 N   0  0  0  0  0  0  0  0  0  0  0  0
   -3.8566    2.2045    0.8620 C   0  0  0  0  0  0  0  0  0  0  0  0
   -4.4072    1.1912    0.1227 C   0  0  0  0  0  0  0  0  0  0  0  0
   -4.0394    0.6670   -1.2040 C   0  0  0  0  0  0  0  0  0  0  0  0
   -2.9242    0.1725   -1.6276 C   0  0  0  0  0  0  0  0  0  0  0  0
   -3.1122   -0.1997   -3.0599 C   0  0  0  0  0  0  0  0  0  0  0  0
   -2.1908   -0.7144   -3.7601 O   0  0  0  0  0  0  0  0  0  0  0  0
   -4.4365    0.1210   -3.4387 N   0  0  0  0  0  0  0  0  0  0  0  0
   -5.0538    0.6702   -2.2969 C   0  0  0  0  0  0  0  0  0  0  0  0
   -6.2442    1.0782   -2.2499 O   0  0  0  0  0  0  0  0  0  0  0  0
   -1.6718    0.0024   -0.8902 C   0  0  0  0  0  0  0  0  0  0  0  0
   -0.8853    0.8658   -0.2032 C   0  0  0  0  0  0  0  0  0  0  0  0
    0.1867    0.2188    0.3640 N   0  0  0  0  0  0  0  0  0  0  0  0
    0.1024   -1.0594    0.0499 C   0  0  0  0  0  0  0  0  0  0  0  0
   -1.0423   -1.2436   -0.7329 C   0  0  0  0  0  0  0  0  0  0  0  0
   -1.3826   -2.4916   -1.2014 C   0  0  0  0  0  0  0  0  0  0  0  0
   -0.5981   -3.5958   -0.9092 C   0  0  0  0  0  0  0  0  0  0  0  0
    0.5223   -3.4172   -0.1441 C   0  0  0  0  0  0  0  0  0  0  0  0
    0.8684   -2.1916    0.3242 C   0  0  0  0  0  0  0  0  0  0  0  0
    2.1158   -2.2145    1.1263 C   0  0  0  0  0  0  0  0  0  0  0  0
    2.7396   -0.8765    0.9716 N   0  0  0  0  0  0  0  0  0  0  0  0
    2.2910    0.2811    1.6646 C   0  0  0  0  0  0  0  0  0  0  0  0
    1.1255    0.9996    1.1361 C   0  0  0  0  0  0  0  0  0  0  0  0
    3.8137   -0.8504    0.1054 C   0  0  0  0  0  0  0  0  0  0  0  0
    4.0800   -2.0704   -0.3845 O   0  0  0  0  0  0  0  0  0  0  0  0
    4.6602    0.1488   -0.3554 N   0  0  0  0  0  0  0  0  0  0  0  0
    4.6190    1.5327   -0.0754 C   0  0  0  0  0  0  0  0  0  0  0  0
    5.7102    1.7883    0.9826 C   0  0  0  0  0  0  0  0  0  0  0  0
    6.9933    1.2006    0.4363 C   0  0  0  0  0  0  0  0  0  0  0  0
    6.9053    0.7159   -0.9713 C   0  0  0  0  0  0  0  0  0  0  0  0
    5.7903   -0.2626   -1.2381 C   0  0  0  0  0  0  0  0  0  0  0  0
   -0.9613   -4.8294   -1.3891 F   0  0  0  0  0  0  0  0  0  0  0  0
   -8.3222   -0.0542    3.3873 H   0  0  0  0  0  0  0  0  0  0  0  0
   -8.0722   -1.3228    1.2610 H   0  0  0  0  0  0  0  0  0  0  0  0
   -6.2608   -0.7949   -0.3060 H   0  0  0  0  0  0  0  0  0  0  0  0
   -6.6375    1.7737    3.8245 H   0  0  0  0  0  0  0  0  0  0  0  0
   -3.0118    2.8000    0.5997 H   0  0  0  0  0  0  0  0  0  0  0  0
   -4.8483   -0.0345   -4.3960 H   0  0  0  0  0  0  0  0  0  0  0  0
   -1.0483    1.9222   -0.1138 H   0  0  0  0  0  0  0  0  0  0  0  0
   -2.2780   -2.5815   -1.7952 H   0  0  0  0  0  0  0  0  0  0  0  0
    1.1710   -4.2588    0.1121 H   0  0  0  0  0  0  0  0  0  0  0  0
    2.8117   -2.9522    0.7033 H   0  0  0  0  0  0  0  0  0  0  0  0
    1.9529   -2.4390    2.1931 H   0  0  0  0  0  0  0  0  0  0  0  0
    1.9312   -0.1282    2.7031 H   0  0  0  0  0  0  0  0  0  0  0  0
    3.0837    0.9824    2.0018 H   0  0  0  0  0  0  0  0  0  0  0  0
    0.5167    1.3785    2.0316 H   0  0  0  0  0  0  0  0  0  0  0  0
    1.4263    1.9245    0.5813 H   0  0  0  0  0  0  0  0  0  0  0  0
    3.6800    2.0045    0.1498 H   0  0  0  0  0  0  0  0  0  0  0  0
    5.0734    2.0932   -0.9906 H   0  0  0  0  0  0  0  0  0  0  0  0
    5.7818    2.8365    1.2632 H   0  0  0  0  0  0  0  0  0  0  0  0
    5.4387    1.1609    1.8547 H   0  0  0  0  0  0  0  0  0  0  0  0
    7.7492    2.0239    0.4433 H   0  0  0  0  0  0  0  0  0  0  0  0
    7.4160    0.4052    1.0751 H   0  0  0  0  0  0  0  0  0  0  0  0
    6.9109    1.5655   -1.6747 H   0  0  0  0  0  0  0  0  0  0  0  0
    7.8554    0.1255   -1.1514 H   0  0  0  0  0  0  0  0  0  0  0  0
    6.0488   -1.3063   -1.0677 H   0  0  0  0  0  0  0  0  0  0  0  0
    5.4394   -0.1124   -2.2775 H   0  0  0  0  0  0  0  0  0  0  0  0
  1  2  1  0
  2  3  2  0
  3  4  1  0
  4  5  1  0
  5  6  1  0
  1  6  2  0
  5  7  2  0
  7  8  1  0
  8  9  2  0
  4  9  1  0
  9 10  1  0
 10 11  2  0
 11 12  1  0
 12 13  2  0
 12 14  1  0
 14 15  1  0
 10 15  1  0
 15 16  2  0
 11 17  1  0
 17 18  2  0
 18 19  1  0
 19 20  1  0
 20 21  2  0
 17 21  1  0
 21 22  1  0
 22 23  2  0
 23 24  1  0
 24 25  2  0
 20 25  1  0
 25 26  1  0
 26 27  1  0
 27 28  1  0
 28 29  1  0
 19 29  1  0
 27 30  1  0
 30 31  2  0
 30 32  1  0
 32 33  1  0
 33 34  1  0
 34 35  1  0
 35 36  1  0
 36 37  1  0
 32 37  1  0
 23 38  1  0
  1 39  1  0
  2 40  1  0
  3 41  1  0
  6 42  1  0
  8 43  1  0
 14 44  1  0
 18 45  1  0
 22 46  1  0
 24 47  1  0
 26 48  1  0
 26 49  1  0
 28 50  1  0
 28 51  1  0
 29 52  1  0
 29 53  1  0
 33 54  1  0
 33 55  1  0
 34 56  1  0
 34 57  1  0
 35 58  1  0
 35 59  1  0
 36 60  1  0
 36 61  1  0
 37 62  1  0
 37 63  1  0
M  END

