347828012
     RDKit          3D

 47 50  0  0  1  0  0  0  0  0999 V2000
    4.1407   -0.3688    0.5161 O   0  0  0  0  0  0  0  0  0  0  0  0
   -6.0409    1.2131   -1.4416 O   0  0  0  0  0  0  0  0  0  0  0  0
    1.7988    0.0146    0.0713 C   0  0  2  0  0  0  0  0  0  0  0  0
    0.8998   -1.0264   -0.5062 C   0  0  2  0  0  0  0  0  0  0  0  0
   -0.4437   -0.9350    0.1214 C   0  0  1  0  0  0  0  0  0  0  0  0
    3.1423   -0.4080   -0.4564 C   0  0  2  0  0  0  0  0  0  0  0  0
    1.6718   -2.2729   -0.3109 C   0  0  0  0  0  0  0  0  0  0  0  0
    3.0216   -1.8544   -0.8913 C   0  0  0  0  0  0  0  0  0  0  0  0
    1.8081    0.0496    1.5833 C   0  0  0  0  0  0  0  0  0  0  0  0
   -0.9283    0.4468   -0.2687 C   0  0  0  0  0  0  0  0  0  0  0  0
    1.3457    1.3296   -0.3859 C   0  0  0  0  0  0  0  0  0  0  0  0
   -1.4246   -1.9668   -0.4252 C   0  0  0  0  0  0  0  0  0  0  0  0
    0.0258    1.5026   -0.5384 C   0  0  0  0  0  0  0  0  0  0  0  0
   -2.2295    0.6876   -0.3818 C   0  0  0  0  0  0  0  0  0  0  0  0
   -2.7170   -1.6749    0.3518 C   0  0  0  0  0  0  0  0  0  0  0  0
   -3.2123   -0.3698   -0.1350 C   0  0  0  0  0  0  0  0  0  0  0  0
    3.5766    0.4473   -1.5544 C   0  0  0  0  0  0  0  0  0  0  0  0
    2.7601    1.1472    2.0035 C   0  0  0  0  0  0  0  0  0  0  0  0
   -2.6893    2.0376   -0.7605 C   0  0  0  0  0  0  0  0  0  0  0  0
   -4.5057   -0.2178   -0.3239 C   0  0  0  0  0  0  0  0  0  0  0  0
   -4.1385    2.2600   -0.5152 C   0  0  0  0  0  0  0  0  0  0  0  0
   -4.9732    1.0756   -0.8038 C   0  0  0  0  0  0  0  0  0  0  0  0
    3.9405    1.1356   -2.4694 C   0  0  0  0  0  0  0  0  0  0  0  0
    4.0905   -1.2034    1.0749 H   0  0  0  0  0  0  0  0  0  0  0  0
    0.7888   -0.8176   -1.5869 H   0  0  0  0  0  0  0  0  0  0  0  0
   -0.4570   -1.0705    1.2191 H   0  0  0  0  0  0  0  0  0  0  0  0
    1.8596   -2.4952    0.7589 H   0  0  0  0  0  0  0  0  0  0  0  0
    1.2646   -3.1543   -0.8457 H   0  0  0  0  0  0  0  0  0  0  0  0
    2.9204   -1.9534   -1.9962 H   0  0  0  0  0  0  0  0  0  0  0  0
    3.8389   -2.4876   -0.4983 H   0  0  0  0  0  0  0  0  0  0  0  0
    0.7992    0.3633    1.9186 H   0  0  0  0  0  0  0  0  0  0  0  0
    2.0685   -0.9223    2.0391 H   0  0  0  0  0  0  0  0  0  0  0  0
    2.0414    2.1402   -0.5964 H   0  0  0  0  0  0  0  0  0  0  0  0
   -1.0688   -2.9596   -0.1386 H   0  0  0  0  0  0  0  0  0  0  0  0
   -1.6017   -1.8405   -1.4986 H   0  0  0  0  0  0  0  0  0  0  0  0
   -0.2855    2.4986   -0.8834 H   0  0  0  0  0  0  0  0  0  0  0  0
   -2.4049   -1.5960    1.4182 H   0  0  0  0  0  0  0  0  0  0  0  0
   -3.4488   -2.4946    0.2193 H   0  0  0  0  0  0  0  0  0  0  0  0
    2.2636    1.8344    2.7162 H   0  0  0  0  0  0  0  0  0  0  0  0
    3.6460    0.6949    2.5337 H   0  0  0  0  0  0  0  0  0  0  0  0
    3.1105    1.7595    1.1543 H   0  0  0  0  0  0  0  0  0  0  0  0
   -2.3776    2.2701   -1.8192 H   0  0  0  0  0  0  0  0  0  0  0  0
   -2.1416    2.8024   -0.1350 H   0  0  0  0  0  0  0  0  0  0  0  0
   -5.2276   -1.0235   -0.1340 H   0  0  0  0  0  0  0  0  0  0  0  0
   -4.5001    3.1030   -1.1492 H   0  0  0  0  0  0  0  0  0  0  0  0
   -4.2641    2.5612    0.5666 H   0  0  0  0  0  0  0  0  0  0  0  0
    4.2568    1.7386   -3.2963 H   0  0  0  0  0  0  0  0  0  0  0  0
  6  1  1  0
  2 22  2  0
  3  4  1  0
  3  6  1  0
  3  9  1  1
  3 11  1  0
  4  5  1  0
  4  7  1  0
  5 10  1  0
  5 12  1  0
  6  8  1  0
  6 17  1  6
  7  8  1  0
  9 18  1  0
 10 13  1  0
 10 14  2  0
 11 13  2  0
 12 15  1  0
 14 16  1  0
 14 19  1  0
 15 16  1  0
 16 20  2  0
 17 23  3  0
 19 21  1  0
 20 22  1  0
 21 22  1  0
  1 24  1  0
  4 25  1  6
  5 26  1  1
  7 27  1  0
  7 28  1  0
  8 29  1  0
  8 30  1  0
  9 31  1  0
  9 32  1  0
 11 33  1  0
 12 34  1  0
 12 35  1  0
 13 36  1  0
 15 37  1  0
 15 38  1  0
 18 39  1  0
 18 40  1  0
 18 41  1  0
 19 42  1  0
 19 43  1  0
 20 44  1  0
 21 45  1  0
 21 46  1  0
 23 47  1  0
M  END

