347829006
     RDKit          3D

 89 94  0  0  1  0  0  0  0  0999 V2000
    8.3188    1.2593   -1.2369 C   0  0  0  0  0  0  0  0  0  0  0  0
    6.8735    0.8875   -1.4151 C   0  0  1  0  0  0  0  0  0  0  0  0
    6.4836   -0.4112   -0.7875 C   0  0  1  0  0  0  0  0  0  0  0  0
    6.4094   -0.3586    0.7117 C   0  0  2  0  0  0  0  0  0  0  0  0
    6.0728    1.0212    1.1492 C   0  0  0  0  0  0  0  0  0  0  0  0
    5.3201    1.7455    0.0652 C   0  0  1  0  0  0  0  0  0  0  0  0
    6.0214    1.9308   -1.1002 O   0  0  0  0  0  0  0  0  0  0  0  0
    4.1491    1.0521   -0.1625 O   0  0  0  0  0  0  0  0  0  0  0  0
    3.0025    1.6945    0.1916 C   0  0  1  0  0  0  0  0  0  0  0  0
    2.1230    2.0771   -0.9823 C   0  0  0  0  0  0  0  0  0  0  0  0
    1.4794    0.8425   -1.5542 C   0  0  0  0  0  0  0  0  0  0  0  0
    0.7406    0.0004   -0.5811 C   0  0  1  0  0  0  0  0  0  0  0  0
    1.2267   -0.0307    0.8198 C   0  0  1  0  0  0  0  0  0  0  0  0
    2.2512    0.9785    1.2428 C   0  0  0  0  0  0  0  0  0  0  0  0
    0.1343    0.0515    1.8674 C   0  0  0  0  0  0  0  0  0  0  0  0
   -1.1116   -0.7072    1.6204 C   0  0  0  0  0  0  0  0  0  0  0  0
   -1.3911   -0.8998    0.1394 C   0  0  2  0  0  0  0  0  0  0  0  0
   -0.7354    0.2718   -0.5197 C   0  0  2  0  0  0  0  0  0  0  0  0
   -1.4277    0.6265   -1.7734 C   0  0  0  0  0  0  0  0  0  0  0  0
   -2.8141    1.1227   -1.3131 C   0  0  0  0  0  0  0  0  0  0  0  0
   -3.5980   -0.0377   -0.8308 C   0  0  1  0  0  0  0  0  0  0  0  0
   -2.7904   -1.1646   -0.2276 C   0  0  2  0  0  0  0  0  0  0  0  0
   -3.6379   -1.7542    0.8742 C   0  0  0  0  0  0  0  0  0  0  0  0
   -4.9511   -0.9659    0.8648 C   0  0  1  0  0  0  0  0  0  0  0  0
   -4.5098    0.3524    0.3003 C   0  0  2  0  0  0  0  0  0  0  0  0
   -5.6416    1.2150   -0.0157 C   0  0  0  0  0  0  0  0  0  0  0  0
   -6.0490    1.7965   -1.1219 C   0  0  0  0  0  0  0  0  0  0  0  0
   -7.2831    2.5743   -0.8844 C   0  0  0  0  0  0  0  0  0  0  0  0
   -7.9357    3.2527   -1.7337 O   0  0  0  0  0  0  0  0  0  0  0  0
   -7.5922    2.4223    0.4403 O   0  0  0  0  0  0  0  0  0  0  0  0
   -6.6429    1.6233    1.0439 C   0  0  0  0  0  0  0  0  0  0  0  0
   -5.8348   -1.6567    0.0527 O   0  0  0  0  0  0  0  0  0  0  0  0
   -7.0374   -2.1589    0.5252 C   0  0  0  0  0  0  0  0  0  0  0  0
   -7.3029   -1.9629    1.7409 O   0  0  0  0  0  0  0  0  0  0  0  0
   -7.9835   -2.9039   -0.3718 C   0  0  0  0  0  0  0  0  0  0  0  0
   -2.7779   -2.1724   -1.2315 O   0  0  0  0  0  0  0  0  0  0  0  0
   -4.4473   -0.5294   -1.9841 C   0  0  0  0  0  0  0  0  0  0  0  0
    0.8763   -1.4323   -1.1554 C   0  0  0  0  0  0  0  0  0  0  0  0
    7.5871   -0.8365    1.2985 O   0  0  0  0  0  0  0  0  0  0  0  0
    7.3699   -1.9568    2.1009 C   0  0  0  0  0  0  0  0  0  0  0  0
    5.3295   -0.9531   -1.3634 O   0  0  0  0  0  0  0  0  0  0  0  0
    8.7543    0.8068   -0.3255 H   0  0  0  0  0  0  0  0  0  0  0  0
    8.9517    0.8855   -2.0956 H   0  0  0  0  0  0  0  0  0  0  0  0
    8.4162    2.3552   -1.2571 H   0  0  0  0  0  0  0  0  0  0  0  0
    6.7289    0.7351   -2.5290 H   0  0  0  0  0  0  0  0  0  0  0  0
    7.3340   -1.1268   -1.0168 H   0  0  0  0  0  0  0  0  0  0  0  0
    5.5742   -1.0283    1.0445 H   0  0  0  0  0  0  0  0  0  0  0  0
    6.9464    1.6016    1.5179 H   0  0  0  0  0  0  0  0  0  0  0  0
    5.3708    1.0047    2.0364 H   0  0  0  0  0  0  0  0  0  0  0  0
    5.0812    2.7547    0.5287 H   0  0  0  0  0  0  0  0  0  0  0  0
    3.3340    2.6921    0.6158 H   0  0  0  0  0  0  0  0  0  0  0  0
    2.6802    2.5590   -1.8053 H   0  0  0  0  0  0  0  0  0  0  0  0
    1.3119    2.7697   -0.6926 H   0  0  0  0  0  0  0  0  0  0  0  0
    0.8952    1.0588   -2.4342 H   0  0  0  0  0  0  0  0  0  0  0  0
    2.3591    0.2270   -1.9375 H   0  0  0  0  0  0  0  0  0  0  0  0
    1.7148   -1.0424    1.0299 H   0  0  0  0  0  0  0  0  0  0  0  0
    2.9061    0.5134    2.0202 H   0  0  0  0  0  0  0  0  0  0  0  0
    1.7011    1.7794    1.8433 H   0  0  0  0  0  0  0  0  0  0  0  0
    0.5849   -0.3232    2.8136 H   0  0  0  0  0  0  0  0  0  0  0  0
   -0.0822    1.1365    2.1176 H   0  0  0  0  0  0  0  0  0  0  0  0
   -1.9598   -0.0650    2.0052 H   0  0  0  0  0  0  0  0  0  0  0  0
   -1.1263   -1.7000    2.1227 H   0  0  0  0  0  0  0  0  0  0  0  0
   -0.8195   -1.8584   -0.0654 H   0  0  0  0  0  0  0  0  0  0  0  0
   -0.8193    1.1952    0.1421 H   0  0  0  0  0  0  0  0  0  0  0  0
   -1.6136   -0.1835   -2.4744 H   0  0  0  0  0  0  0  0  0  0  0  0
   -1.0067    1.5152   -2.2898 H   0  0  0  0  0  0  0  0  0  0  0  0
   -2.6729    1.9226   -0.5634 H   0  0  0  0  0  0  0  0  0  0  0  0
   -3.2433    1.5721   -2.2554 H   0  0  0  0  0  0  0  0  0  0  0  0
   -3.8350   -2.8403    0.7522 H   0  0  0  0  0  0  0  0  0  0  0  0
   -3.2206   -1.6377    1.8847 H   0  0  0  0  0  0  0  0  0  0  0  0
   -5.3303   -0.8623    1.9150 H   0  0  0  0  0  0  0  0  0  0  0  0
   -3.9039    0.8985    1.1028 H   0  0  0  0  0  0  0  0  0  0  0  0
   -5.5875    1.7714   -2.1170 H   0  0  0  0  0  0  0  0  0  0  0  0
   -6.0700    2.1357    1.8459 H   0  0  0  0  0  0  0  0  0  0  0  0
   -7.1255    0.7600    1.4975 H   0  0  0  0  0  0  0  0  0  0  0  0
   -8.2101   -3.8623    0.1134 H   0  0  0  0  0  0  0  0  0  0  0  0
   -7.4251   -3.1129   -1.3111 H   0  0  0  0  0  0  0  0  0  0  0  0
   -8.8790   -2.3077   -0.6035 H   0  0  0  0  0  0  0  0  0  0  0  0
   -2.7556   -3.0572   -0.7906 H   0  0  0  0  0  0  0  0  0  0  0  0
   -4.2157   -1.5873   -2.2694 H   0  0  0  0  0  0  0  0  0  0  0  0
   -5.5183   -0.4921   -1.8392 H   0  0  0  0  0  0  0  0  0  0  0  0
   -4.2176    0.0330   -2.9372 H   0  0  0  0  0  0  0  0  0  0  0  0
    0.0612   -1.7075   -1.8105 H   0  0  0  0  0  0  0  0  0  0  0  0
    1.8019   -1.4926   -1.8033 H   0  0  0  0  0  0  0  0  0  0  0  0
    1.0830   -2.1680   -0.3570 H   0  0  0  0  0  0  0  0  0  0  0  0
    6.6654   -1.7341    2.9382 H   0  0  0  0  0  0  0  0  0  0  0  0
    8.3657   -2.1526    2.5969 H   0  0  0  0  0  0  0  0  0  0  0  0
    7.1060   -2.8647    1.5572 H   0  0  0  0  0  0  0  0  0  0  0  0
    5.6354   -1.3821   -2.2141 H   0  0  0  0  0  0  0  0  0  0  0  0
  2  1  1  0
  2  3  1  0
  3  4  1  0
  4  5  1  0
  5  6  1  0
  6  7  1  0
  2  7  1  0
  6  8  1  0
  9  8  1  0
  9 10  1  0
 10 11  1  0
 11 12  1  0
 12 13  1  0
 13 14  1  0
  9 14  1  0
 13 15  1  0
 15 16  1  0
 17 16  1  0
 17 18  1  0
 12 18  1  0
 18 19  1  0
 19 20  1  0
 20 21  1  0
 21 22  1  0
 17 22  1  0
 22 23  1  0
 23 24  1  0
 24 25  1  0
 21 25  1  0
 25 26  1  0
 26 27  2  0
 27 28  1  0
 28 29  2  0
 28 30  1  0
 30 31  1  0
 26 31  1  0
 24 32  1  0
 32 33  1  0
 33 34  2  0
 33 35  1  0
 22 36  1  6
 21 37  1  6
 12 38  1  6
  4 39  1  0
 39 40  1  0
  3 41  1  0
  1 42  1  0
  1 43  1  0
  1 44  1  0
  2 45  1  6
  3 46  1  1
  4 47  1  1
  5 48  1  0
  5 49  1  0
  6 50  1  1
  9 51  1  1
 10 52  1  0
 10 53  1  0
 11 54  1  0
 11 55  1  0
 13 56  1  1
 14 57  1  0
 14 58  1  0
 15 59  1  0
 15 60  1  0
 16 61  1  0
 16 62  1  0
 17 63  1  6
 18 64  1  1
 19 65  1  0
 19 66  1  0
 20 67  1  0
 20 68  1  0
 23 69  1  0
 23 70  1  0
 24 71  1  1
 25 72  1  1
 27 73  1  0
 31 74  1  0
 31 75  1  0
 35 76  1  0
 35 77  1  0
 35 78  1  0
 36 79  1  0
 37 80  1  0
 37 81  1  0
 37 82  1  0
 38 83  1  0
 38 84  1  0
 38 85  1  0
 40 86  1  0
 40 87  1  0
 40 88  1  0
 41 89  1  0
M  END

