347828907
     RDKit          3D

 47 46  0  0  0  0  0  0  0  0999 V2000
   -4.0998   -4.4186   -1.9224 C   0  0  0  0  0  0  0  0  0  0  0  0
    6.7642   -1.8087   -0.1644 C   0  0  0  0  0  0  0  0  0  0  0  0
   -4.0212    5.0208    1.3667 C   0  0  0  0  0  0  0  0  0  0  0  0
   -2.7396   -3.7428   -2.0663 C   0  0  0  0  0  0  0  0  0  0  0  0
    5.4430   -1.2469   -0.5985 C   0  0  0  0  0  0  0  0  0  0  0  0
   -2.8167    4.1543    1.6397 C   0  0  0  0  0  0  0  0  0  0  0  0
   -2.6957   -2.6224   -1.0745 C   0  0  0  0  0  0  0  0  0  0  0  0
    4.8813   -0.3020    0.4437 C   0  0  0  0  0  0  0  0  0  0  0  0
   -2.9748    2.8450    0.8966 C   0  0  0  0  0  0  0  0  0  0  0  0
    0.2415   -0.2078   -0.5071 C   0  0  0  0  0  0  0  0  0  0  0  0
    1.5930    1.6717    0.4343 C   0  0  0  0  0  0  0  0  0  0  0  0
    0.3213    0.9105    0.4734 C   0  0  0  0  0  0  0  0  0  0  0  0
   -1.3909   -1.9207   -1.1627 C   0  0  0  0  0  0  0  0  0  0  0  0
    3.5566    0.2086   -0.0816 C   0  0  0  0  0  0  0  0  0  0  0  0
   -1.8047    1.9492    1.1327 C   0  0  0  0  0  0  0  0  0  0  0  0
   -0.5344   -2.3088   -1.9964 O   0  0  0  0  0  0  0  0  0  0  0  0
    3.1277   -0.1620   -1.1994 O   0  0  0  0  0  0  0  0  0  0  0  0
   -1.6926    1.2961    2.2043 O   0  0  0  0  0  0  0  0  0  0  0  0
   -1.0450   -0.8402   -0.3677 O   0  0  0  0  0  0  0  0  0  0  0  0
    2.7911    1.0781    0.6313 O   0  0  0  0  0  0  0  0  0  0  0  0
   -0.7942    1.7922    0.1977 O   0  0  0  0  0  0  0  0  0  0  0  0
   -4.2606   -4.4973   -0.8096 H   0  0  0  0  0  0  0  0  0  0  0  0
   -4.8509   -3.7192   -2.2943 H   0  0  0  0  0  0  0  0  0  0  0  0
   -4.1214   -5.4183   -2.3757 H   0  0  0  0  0  0  0  0  0  0  0  0
    6.8425   -2.8499   -0.5642 H   0  0  0  0  0  0  0  0  0  0  0  0
    7.5547   -1.1743   -0.6144 H   0  0  0  0  0  0  0  0  0  0  0  0
    6.8736   -1.8724    0.9336 H   0  0  0  0  0  0  0  0  0  0  0  0
   -3.6721    6.0799    1.3025 H   0  0  0  0  0  0  0  0  0  0  0  0
   -4.4760    4.8003    0.3821 H   0  0  0  0  0  0  0  0  0  0  0  0
   -4.7770    4.9857    2.1790 H   0  0  0  0  0  0  0  0  0  0  0  0
   -2.5541   -3.4070   -3.0968 H   0  0  0  0  0  0  0  0  0  0  0  0
   -1.9204   -4.4510   -1.7901 H   0  0  0  0  0  0  0  0  0  0  0  0
    4.7170   -2.1018   -0.6702 H   0  0  0  0  0  0  0  0  0  0  0  0
    5.4889   -0.6967   -1.5534 H   0  0  0  0  0  0  0  0  0  0  0  0
   -2.7389    3.9543    2.7077 H   0  0  0  0  0  0  0  0  0  0  0  0
   -1.9129    4.6800    1.2222 H   0  0  0  0  0  0  0  0  0  0  0  0
   -2.8695   -3.0226   -0.0583 H   0  0  0  0  0  0  0  0  0  0  0  0
   -3.5067   -1.8651   -1.2643 H   0  0  0  0  0  0  0  0  0  0  0  0
    5.5923    0.5176    0.6042 H   0  0  0  0  0  0  0  0  0  0  0  0
    4.7572   -0.8502    1.3858 H   0  0  0  0  0  0  0  0  0  0  0  0
   -3.1301    2.9706   -0.1761 H   0  0  0  0  0  0  0  0  0  0  0  0
   -3.8598    2.3329    1.3199 H   0  0  0  0  0  0  0  0  0  0  0  0
    0.4555    0.0554   -1.5336 H   0  0  0  0  0  0  0  0  0  0  0  0
    0.9374   -1.0571   -0.2176 H   0  0  0  0  0  0  0  0  0  0  0  0
    1.6557    2.3131   -0.5005 H   0  0  0  0  0  0  0  0  0  0  0  0
    1.5003    2.4905    1.2355 H   0  0  0  0  0  0  0  0  0  0  0  0
    0.1648    0.4569    1.5015 H   0  0  0  0  0  0  0  0  0  0  0  0
  1  4  1  0
  2  5  1  0
  3  6  1  0
  4  7  1  0
  5  8  1  0
  6  9  1  0
 10 12  1  0
 11 12  1  0
  7 13  1  0
  8 14  1  0
  9 15  1  0
 13 16  2  0
 14 17  2  0
 15 18  2  0
 10 19  1  0
 13 19  1  0
 11 20  1  0
 14 20  1  0
 12 21  1  0
 15 21  1  0
  1 22  1  0
  1 23  1  0
  1 24  1  0
  2 25  1  0
  2 26  1  0
  2 27  1  0
  3 28  1  0
  3 29  1  0
  3 30  1  0
  4 31  1  0
  4 32  1  0
  5 33  1  0
  5 34  1  0
  6 35  1  0
  6 36  1  0
  7 37  1  0
  7 38  1  0
  8 39  1  0
  8 40  1  0
  9 41  1  0
  9 42  1  0
 10 43  1  0
 10 44  1  0
 11 45  1  0
 11 46  1  0
 12 47  1  0
M  END

