347828303
     RDKit          3D

 95 96  0  0  1  0  0  0  0  0999 V2000
    5.6192   -1.8147    1.5830 N   0  0  0  0  0  0  0  0  0  0  0  0
    5.6812   -0.8665    0.5222 C   0  0  1  0  0  0  0  0  0  0  0  0
    4.4406   -0.6941   -0.2673 C   0  0  0  0  0  0  0  0  0  0  0  0
    3.2793   -1.4712   -0.2374 N   0  0  0  0  0  0  0  0  0  0  0  0
    2.1254   -1.1190   -1.1155 C   0  0  2  0  0  0  0  0  0  0  0  0
    0.8777   -1.0930   -0.3550 C   0  0  0  0  0  0  0  0  0  0  0  0
   -0.1392   -0.0965   -0.5249 N   0  0  0  0  0  0  0  0  0  0  0  0
   -1.3368   -0.1561    0.2591 C   0  0  2  0  0  0  0  0  0  0  0  0
   -2.5312    0.4230   -0.3390 C   0  0  0  0  0  0  0  0  0  0  0  0
   -3.7783    0.3217    0.3076 N   0  0  0  0  0  0  0  0  0  0  0  0
   -5.0209    0.8687   -0.1722 C   0  0  2  0  0  0  0  0  0  0  0  0
   -5.6993    1.7221    0.7915 C   0  0  0  0  0  0  0  0  0  0  0  0
   -6.9193    2.4237    0.5622 N   0  0  0  0  0  0  0  0  0  0  0  0
    6.1757    0.4590    1.0317 C   0  0  0  0  0  0  0  0  0  0  0  0
    5.3711    1.1179    2.0782 C   0  0  0  0  0  0  0  0  0  0  0  0
    5.2446    0.3488    3.3584 C   0  0  0  0  0  0  0  0  0  0  0  0
    6.5605    0.0965    3.9397 N   0  0  0  0  0  0  0  0  0  0  0  0
    7.3102    1.1991    4.4276 C   0  0  0  0  0  0  0  0  0  0  0  0
    6.7935    1.9514    5.5164 N   0  0  0  0  0  0  0  0  0  0  0  0
    8.4419    1.5393    3.9194 N   0  0  0  0  0  0  0  0  0  0  0  0
    4.4499    0.3071   -1.0835 O   0  0  0  0  0  0  0  0  0  0  0  0
    2.1031   -2.2507   -2.1281 C   0  0  0  0  0  0  0  0  0  0  0  0
    1.0589   -2.1707   -3.1360 C   0  0  0  0  0  0  0  0  0  0  0  0
    1.1575   -1.2813   -4.1965 C   0  0  0  0  0  0  0  0  0  0  0  0
    0.1690   -1.2201   -5.1533 C   0  0  0  0  0  0  0  0  0  0  0  0
   -0.9551   -2.0338   -5.0986 C   0  0  0  0  0  0  0  0  0  0  0  0
   -1.0652   -2.9172   -4.0552 C   0  0  0  0  0  0  0  0  0  0  0  0
   -0.0521   -2.9772   -3.0805 C   0  0  0  0  0  0  0  0  0  0  0  0
   -0.2868   -3.9884   -1.9958 C   0  0  0  0  0  0  0  0  0  0  0  0
   -1.9456   -1.9542   -6.0796 O   0  0  0  0  0  0  0  0  0  0  0  0
    2.3350   -0.3636   -4.3413 C   0  0  0  0  0  0  0  0  0  0  0  0
    0.7143   -2.0139    0.4992 O   0  0  0  0  0  0  0  0  0  0  0  0
   -1.0812    0.5051    1.6381 C   0  0  0  0  0  0  0  0  0  0  0  0
   -0.6656    1.9322    1.5165 C   0  0  0  0  0  0  0  0  0  0  0  0
   -0.4242    2.5609    2.8711 C   0  0  0  0  0  0  0  0  0  0  0  0
    0.6450    1.8767    3.6616 C   0  0  0  0  0  0  0  0  0  0  0  0
    1.9434    1.8652    3.0407 N   0  0  0  0  0  0  0  0  0  0  0  0
   -2.4760    1.0354   -1.4577 O   0  0  0  0  0  0  0  0  0  0  0  0
   -5.8673   -0.2273   -0.7497 C   0  0  0  0  0  0  0  0  0  0  0  0
   -7.1792    0.2515   -1.2458 C   0  0  0  0  0  0  0  0  0  0  0  0
   -7.4031    0.7655   -2.4957 C   0  0  0  0  0  0  0  0  0  0  0  0
   -8.6823    1.1731   -2.8529 C   0  0  0  0  0  0  0  0  0  0  0  0
   -9.7622    1.0837   -1.9922 C   0  0  0  0  0  0  0  0  0  0  0  0
   -9.5253    0.5634   -0.7349 C   0  0  0  0  0  0  0  0  0  0  0  0
   -8.2521    0.1594   -0.3832 C   0  0  0  0  0  0  0  0  0  0  0  0
   -5.2021    1.8895    1.9453 O   0  0  0  0  0  0  0  0  0  0  0  0
    4.7310   -2.3041    1.6509 H   0  0  0  0  0  0  0  0  0  0  0  0
    6.4660   -2.4305    1.6693 H   0  0  0  0  0  0  0  0  0  0  0  0
    6.5116   -1.1776   -0.2234 H   0  0  0  0  0  0  0  0  0  0  0  0
    3.2083   -2.2939    0.3910 H   0  0  0  0  0  0  0  0  0  0  0  0
    2.3330   -0.1563   -1.5619 H   0  0  0  0  0  0  0  0  0  0  0  0
   -0.0284    0.6762   -1.2084 H   0  0  0  0  0  0  0  0  0  0  0  0
   -1.5185   -1.2123    0.5387 H   0  0  0  0  0  0  0  0  0  0  0  0
   -3.8193   -0.2027    1.2258 H   0  0  0  0  0  0  0  0  0  0  0  0
   -4.7225    1.5020   -1.0705 H   0  0  0  0  0  0  0  0  0  0  0  0
   -7.6457    2.4278    1.2921 H   0  0  0  0  0  0  0  0  0  0  0  0
   -7.1104    2.9441   -0.3263 H   0  0  0  0  0  0  0  0  0  0  0  0
    6.3912    1.1563    0.1654 H   0  0  0  0  0  0  0  0  0  0  0  0
    7.2121    0.2528    1.4428 H   0  0  0  0  0  0  0  0  0  0  0  0
    4.3179    1.2809    1.7069 H   0  0  0  0  0  0  0  0  0  0  0  0
    5.7978    2.1397    2.2605 H   0  0  0  0  0  0  0  0  0  0  0  0
    4.6885    1.0291    4.0732 H   0  0  0  0  0  0  0  0  0  0  0  0
    4.6233   -0.5262    3.2463 H   0  0  0  0  0  0  0  0  0  0  0  0
    6.9337   -0.8595    3.9946 H   0  0  0  0  0  0  0  0  0  0  0  0
    5.7829    1.9935    5.6662 H   0  0  0  0  0  0  0  0  0  0  0  0
    7.4559    2.4428    6.1407 H   0  0  0  0  0  0  0  0  0  0  0  0
    8.8344    0.9771    3.1032 H   0  0  0  0  0  0  0  0  0  0  0  0
    3.0802   -2.3161   -2.6678 H   0  0  0  0  0  0  0  0  0  0  0  0
    2.0561   -3.1771   -1.5271 H   0  0  0  0  0  0  0  0  0  0  0  0
    0.2375   -0.5282   -5.9883 H   0  0  0  0  0  0  0  0  0  0  0  0
   -1.9265   -3.5581   -3.9920 H   0  0  0  0  0  0  0  0  0  0  0  0
   -0.8260   -3.5564   -1.1413 H   0  0  0  0  0  0  0  0  0  0  0  0
    0.6366   -4.5412   -1.7441 H   0  0  0  0  0  0  0  0  0  0  0  0
   -0.9821   -4.7989   -2.3784 H   0  0  0  0  0  0  0  0  0  0  0  0
   -1.8202   -2.5696   -6.8879 H   0  0  0  0  0  0  0  0  0  0  0  0
    2.1361    0.6394   -3.8620 H   0  0  0  0  0  0  0  0  0  0  0  0
    3.2687   -0.8216   -4.0232 H   0  0  0  0  0  0  0  0  0  0  0  0
    2.4695   -0.1194   -5.4254 H   0  0  0  0  0  0  0  0  0  0  0  0
   -2.0525    0.4473    2.1626 H   0  0  0  0  0  0  0  0  0  0  0  0
   -0.3745   -0.1352    2.1832 H   0  0  0  0  0  0  0  0  0  0  0  0
   -1.4210    2.5013    0.9600 H   0  0  0  0  0  0  0  0  0  0  0  0
    0.3057    1.9676    0.9671 H   0  0  0  0  0  0  0  0  0  0  0  0
   -0.1500    3.6354    2.7422 H   0  0  0  0  0  0  0  0  0  0  0  0
   -1.3612    2.5108    3.4803 H   0  0  0  0  0  0  0  0  0  0  0  0
    0.7489    2.4089    4.6386 H   0  0  0  0  0  0  0  0  0  0  0  0
    0.3589    0.8287    3.9327 H   0  0  0  0  0  0  0  0  0  0  0  0
    2.6183    2.5199    3.5078 H   0  0  0  0  0  0  0  0  0  0  0  0
    2.3284    0.8906    2.9953 H   0  0  0  0  0  0  0  0  0  0  0  0
   -6.0487   -0.9849    0.0294 H   0  0  0  0  0  0  0  0  0  0  0  0
   -5.2743   -0.7224   -1.5598 H   0  0  0  0  0  0  0  0  0  0  0  0
   -6.5854    0.8429   -3.1793 H   0  0  0  0  0  0  0  0  0  0  0  0
   -8.8610    1.5780   -3.8368 H   0  0  0  0  0  0  0  0  0  0  0  0
  -10.7565    1.4231   -2.3220 H   0  0  0  0  0  0  0  0  0  0  0  0
  -10.3689    0.4889   -0.0566 H   0  0  0  0  0  0  0  0  0  0  0  0
   -8.1253   -0.2441    0.6178 H   0  0  0  0  0  0  0  0  0  0  0  0
  1  2  1  0
  2  3  1  0
  3  4  1  0
  4  5  1  0
  5  6  1  0
  6  7  1  0
  7  8  1  0
  8  9  1  0
  9 10  1  0
 10 11  1  0
 11 12  1  0
 12 13  1  0
  2 14  1  0
 14 15  1  0
 15 16  1  0
 16 17  1  0
 17 18  1  0
 18 19  1  0
 18 20  2  3
  3 21  2  0
  5 22  1  0
 22 23  1  0
 23 24  2  0
 23 28  1  0
 24 25  1  0
 25 26  2  0
 26 27  1  0
 27 28  2  0
 28 29  1  0
 26 30  1  0
 24 31  1  0
  6 32  2  0
  8 33  1  0
 33 34  1  0
 34 35  1  0
 35 36  1  0
 36 37  1  0
  9 38  2  0
 11 39  1  0
 39 40  1  0
 40 41  2  0
 40 45  1  0
 41 42  1  0
 42 43  2  0
 43 44  1  0
 44 45  2  0
 12 46  2  0
  1 47  1  0
  1 48  1  0
  2 49  1  6
  4 50  1  0
  5 51  1  6
  7 52  1  0
  8 53  1  1
 10 54  1  0
 11 55  1  6
 13 56  1  0
 13 57  1  0
 14 58  1  0
 14 59  1  0
 15 60  1  0
 15 61  1  0
 16 62  1  0
 16 63  1  0
 17 64  1  0
 19 65  1  0
 19 66  1  0
 20 67  1  0
 22 68  1  0
 22 69  1  0
 25 70  1  0
 27 71  1  0
 29 72  1  0
 29 73  1  0
 29 74  1  0
 30 75  1  0
 31 76  1  0
 31 77  1  0
 31 78  1  0
 33 79  1  0
 33 80  1  0
 34 81  1  0
 34 82  1  0
 35 83  1  0
 35 84  1  0
 36 85  1  0
 36 86  1  0
 37 87  1  0
 37 88  1  0
 39 89  1  0
 39 90  1  0
 41 91  1  0
 42 92  1  0
 43 93  1  0
 44 94  1  0
 45 95  1  0
M  END

