347829249
     RDKit          3D

 65 67  0  0  1  0  0  0  0  0999 V2000
   -4.0648    3.0101    3.4348 C   0  0  0  0  0  0  0  0  0  0  0  0
   -4.3849    2.4475    2.1149 C   0  0  0  0  0  0  0  0  0  0  0  0
   -5.4611    2.8164    1.3297 C   0  0  0  0  0  0  0  0  0  0  0  0
   -5.6789    2.2179    0.0871 C   0  0  0  0  0  0  0  0  0  0  0  0
   -4.8347    1.2504   -0.3835 C   0  0  0  0  0  0  0  0  0  0  0  0
   -3.7485    0.8527    0.3815 C   0  0  0  0  0  0  0  0  0  0  0  0
   -3.5486    1.4726    1.6209 C   0  0  0  0  0  0  0  0  0  0  0  0
   -2.3823    1.2237    2.4315 N   0  0  0  0  0  0  0  0  0  0  0  0
   -1.1103    0.7551    1.9551 C   0  0  0  0  0  0  0  0  0  0  0  0
   -0.3149    0.4601    2.8525 O   0  0  0  0  0  0  0  0  0  0  0  0
   -0.7517    0.6252    0.5169 C   0  0  2  0  0  0  0  0  0  0  0  0
   -1.6870   -0.2922   -0.1664 N   0  0  0  0  0  0  0  0  0  0  0  0
   -2.9828   -0.2138   -0.2330 C   0  0  0  0  0  0  0  0  0  0  0  0
   -3.6983   -1.2315   -0.9594 C   0  0  0  0  0  0  0  0  0  0  0  0
   -5.0189   -1.4650   -1.0687 C   0  0  0  0  0  0  0  0  0  0  0  0
   -5.6064   -2.4324   -1.8815 C   0  0  0  0  0  0  0  0  0  0  0  0
   -4.7873   -3.2321   -2.6455 C   0  0  0  0  0  0  0  0  0  0  0  0
   -3.4412   -3.0335   -2.5649 C   0  0  0  0  0  0  0  0  0  0  0  0
   -2.8853   -2.0775   -1.7617 C   0  0  0  0  0  0  0  0  0  0  0  0
   -2.6551   -3.8494   -3.3376 F   0  0  0  0  0  0  0  0  0  0  0  0
    0.5955    0.1765    0.2948 N   0  0  0  0  0  0  0  0  0  0  0  0
    1.5297    0.8462   -0.4919 C   0  0  0  0  0  0  0  0  0  0  0  0
    1.1574    1.9276   -1.0480 O   0  0  0  0  0  0  0  0  0  0  0  0
    2.9606    0.4035   -0.7494 C   0  0  2  0  0  0  0  0  0  0  0  0
    2.8412   -1.0320   -1.0768 C   0  0  0  0  0  0  0  0  0  0  0  0
    1.9608   -1.3375   -2.2579 C   0  0  0  0  0  0  0  0  0  0  0  0
    2.3931   -0.7455   -3.5507 C   0  0  0  0  0  0  0  0  0  0  0  0
    1.5029   -1.1338   -4.5839 F   0  0  0  0  0  0  0  0  0  0  0  0
    2.3419    0.6565   -3.5633 F   0  0  0  0  0  0  0  0  0  0  0  0
    3.6444   -1.1219   -3.9730 F   0  0  0  0  0  0  0  0  0  0  0  0
    3.7844    0.8201    0.4083 C   0  0  2  0  0  0  0  0  0  0  0  0
    5.2353    0.6110    0.4322 C   0  0  0  0  0  0  0  0  0  0  0  0
    5.8425   -0.7205    0.3207 C   0  0  0  0  0  0  0  0  0  0  0  0
    7.3917   -0.6134    0.4771 C   0  0  0  0  0  0  0  0  0  0  0  0
    7.9002    0.2029   -0.5146 F   0  0  0  0  0  0  0  0  0  0  0  0
    7.9493   -1.8580    0.3183 F   0  0  0  0  0  0  0  0  0  0  0  0
    7.7007   -0.0299    1.6877 F   0  0  0  0  0  0  0  0  0  0  0  0
    3.1791    0.4269    1.7467 C   0  0  0  0  0  0  0  0  0  0  0  0
    2.6233    1.2766    2.5002 O   0  0  0  0  0  0  0  0  0  0  0  0
    3.1930   -0.8933    2.2407 N   0  0  0  0  0  0  0  0  0  0  0  0
   -4.7221    3.8795    3.6144 H   0  0  0  0  0  0  0  0  0  0  0  0
   -3.0269    3.3943    3.4665 H   0  0  0  0  0  0  0  0  0  0  0  0
   -4.2763    2.2791    4.2555 H   0  0  0  0  0  0  0  0  0  0  0  0
   -6.1169    3.5817    1.7209 H   0  0  0  0  0  0  0  0  0  0  0  0
   -6.5183    2.5330   -0.4817 H   0  0  0  0  0  0  0  0  0  0  0  0
   -4.9238    0.7998   -1.3746 H   0  0  0  0  0  0  0  0  0  0  0  0
   -2.5091    1.4223    3.4201 H   0  0  0  0  0  0  0  0  0  0  0  0
   -0.8792    1.6083    0.0396 H   0  0  0  0  0  0  0  0  0  0  0  0
   -5.7007   -0.9237   -0.4462 H   0  0  0  0  0  0  0  0  0  0  0  0
   -6.6843   -2.5443   -1.9044 H   0  0  0  0  0  0  0  0  0  0  0  0
   -5.1920   -4.0002   -3.2956 H   0  0  0  0  0  0  0  0  0  0  0  0
   -1.8303   -1.9670   -1.7380 H   0  0  0  0  0  0  0  0  0  0  0  0
    0.8504   -0.7143    0.7665 H   0  0  0  0  0  0  0  0  0  0  0  0
    3.2635    0.9479   -1.6704 H   0  0  0  0  0  0  0  0  0  0  0  0
    3.7670   -1.5969   -1.2666 H   0  0  0  0  0  0  0  0  0  0  0  0
    2.3580   -1.5823   -0.2103 H   0  0  0  0  0  0  0  0  0  0  0  0
    0.9602   -0.8699   -2.0153 H   0  0  0  0  0  0  0  0  0  0  0  0
    1.7327   -2.4247   -2.3348 H   0  0  0  0  0  0  0  0  0  0  0  0
    3.6687    1.9641    0.4366 H   0  0  0  0  0  0  0  0  0  0  0  0
    5.6984    1.3653   -0.2660 H   0  0  0  0  0  0  0  0  0  0  0  0
    5.5868    1.0217    1.4431 H   0  0  0  0  0  0  0  0  0  0  0  0
    5.7958   -1.0114   -0.7829 H   0  0  0  0  0  0  0  0  0  0  0  0
    5.4450   -1.5425    0.8819 H   0  0  0  0  0  0  0  0  0  0  0  0
    4.0691   -1.1572    2.7881 H   0  0  0  0  0  0  0  0  0  0  0  0
    2.5004   -1.6287    2.1601 H   0  0  0  0  0  0  0  0  0  0  0  0
  1  2  1  0
  2  3  2  0
  3  4  1  0
  4  5  2  0
  5  6  1  0
  6  7  2  0
  2  7  1  0
  7  8  1  0
  8  9  1  0
  9 10  2  0
  9 11  1  0
 11 12  1  0
 12 13  2  0
  6 13  1  0
 13 14  1  0
 14 15  2  0
 15 16  1  0
 16 17  2  0
 17 18  1  0
 18 19  2  0
 14 19  1  0
 18 20  1  0
 11 21  1  0
 21 22  1  0
 22 23  2  0
 24 22  1  0
 24 25  1  0
 25 26  1  0
 26 27  1  0
 27 28  1  0
 27 29  1  0
 27 30  1  0
 24 31  1  0
 31 32  1  0
 32 33  1  0
 33 34  1  0
 34 35  1  0
 34 36  1  0
 34 37  1  0
 31 38  1  0
 38 39  2  0
 38 40  1  0
  1 41  1  0
  1 42  1  0
  1 43  1  0
  3 44  1  0
  4 45  1  0
  5 46  1  0
  8 47  1  0
 11 48  1  6
 15 49  1  0
 16 50  1  0
 17 51  1  0
 19 52  1  0
 21 53  1  0
 24 54  1  6
 25 55  1  0
 25 56  1  0
 26 57  1  0
 26 58  1  0
 31 59  1  1
 32 60  1  0
 32 61  1  0
 33 62  1  0
 33 63  1  0
 40 64  1  0
 40 65  1  0
M  END

