347828880
     RDKit          3D

 56 59  0  0  1  0  0  0  0  0999 V2000
    3.9829   -0.8207   -1.0668 C   0  0  0  0  0  0  0  0  0  0  0  0
    4.4740   -0.5497   -2.1735 O   0  0  0  0  0  0  0  0  0  0  0  0
    1.8277   -0.5788    0.2018 C   0  0  0  0  0  0  0  0  0  0  0  0
    1.7753   -1.1083   -2.0996 C   0  0  0  0  0  0  0  0  0  0  0  0
    0.4432   -0.6517    0.2402 C   0  0  0  0  0  0  0  0  0  0  0  0
    0.4081   -1.1810   -2.0649 C   0  0  0  0  0  0  0  0  0  0  0  0
   -0.3159   -0.9580   -0.8987 C   0  0  0  0  0  0  0  0  0  0  0  0
    2.4993   -0.8089   -0.9671 C   0  0  0  0  0  0  0  0  0  0  0  0
    4.7060   -2.0689    2.3574 C   0  0  0  0  0  0  0  0  0  0  0  0
    5.9650    1.9695    2.8064 C   0  0  0  0  0  0  0  0  0  0  0  0
    3.4882   -2.3650    2.4012 O   0  0  0  0  0  0  0  0  0  0  0  0
    5.3932   -1.4517    1.1889 C   0  0  2  0  0  0  0  0  0  0  0  0
    5.2918    2.9377    3.2924 O   0  0  0  0  0  0  0  0  0  0  0  0
    6.1497   -0.2155    1.7249 C   0  0  0  0  0  0  0  0  0  0  0  0
    5.2117    0.7575    2.3477 C   0  0  0  0  0  0  0  0  0  0  0  0
    5.4250   -2.3657    3.5263 O   0  0  0  0  0  0  0  0  0  0  0  0
    4.7038   -1.1434    0.0866 N   0  0  0  0  0  0  0  0  0  0  0  0
    7.3311    2.0016    2.6921 O   0  0  0  0  0  0  0  0  0  0  0  0
   -2.6462   -0.6136    0.1685 C   0  0  0  0  0  0  0  0  0  0  0  0
   -2.5841   -1.5351   -1.8971 C   0  0  0  0  0  0  0  0  0  0  0  0
   -1.6968   -1.0319   -0.8800 N   0  0  0  0  0  0  0  0  0  0  0  0
   -3.6343   -0.4854   -1.9527 C   0  0  2  0  0  0  0  0  0  0  0  0
   -3.6892    0.0153   -0.5725 N   0  0  0  0  0  0  0  0  0  0  0  0
   -5.8966    0.9551   -0.9718 C   0  0  0  0  0  0  0  0  0  0  0  0
   -4.6915    0.9625   -0.2568 C   0  0  0  0  0  0  0  0  0  0  0  0
   -6.8066    1.8631   -0.6957 N   0  0  0  0  0  0  0  0  0  0  0  0
   -6.0577   -0.0735   -1.9433 N   0  0  0  0  0  0  0  0  0  0  0  0
   -5.4785    2.8212    0.9424 N   0  0  0  0  0  0  0  0  0  0  0  0
   -6.6366    2.8230    0.2587 C   0  0  0  0  0  0  0  0  0  0  0  0
   -4.5085    1.9186    0.7076 C   0  0  0  0  0  0  0  0  0  0  0  0
   -4.9975   -0.9302   -2.3862 C   0  0  0  0  0  0  0  0  0  0  0  0
   -7.6096    3.7932    0.5233 N   0  0  0  0  0  0  0  0  0  0  0  0
   -3.4170    1.8898    1.3307 O   0  0  0  0  0  0  0  0  0  0  0  0
    2.4123   -0.3236    1.0848 H   0  0  0  0  0  0  0  0  0  0  0  0
    2.2934   -1.2862   -3.0156 H   0  0  0  0  0  0  0  0  0  0  0  0
   -0.0320   -0.4640    1.1881 H   0  0  0  0  0  0  0  0  0  0  0  0
   -0.1218   -1.4146   -2.9603 H   0  0  0  0  0  0  0  0  0  0  0  0
    6.2935   -2.1737    0.9870 H   0  0  0  0  0  0  0  0  0  0  0  0
    6.9243   -0.6237    2.4340 H   0  0  0  0  0  0  0  0  0  0  0  0
    6.6474    0.2317    0.8524 H   0  0  0  0  0  0  0  0  0  0  0  0
    4.3497    0.9837    1.7098 H   0  0  0  0  0  0  0  0  0  0  0  0
    4.7611    0.3368    3.2936 H   0  0  0  0  0  0  0  0  0  0  0  0
    6.3397   -2.7924    3.4222 H   0  0  0  0  0  0  0  0  0  0  0  0
    5.8604   -0.9471   -0.6253 H   0  0  0  0  0  0  0  0  0  0  0  0
    7.8060    1.3100    2.1354 H   0  0  0  0  0  0  0  0  0  0  0  0
   -2.1900   -0.0560    0.9744 H   0  0  0  0  0  0  0  0  0  0  0  0
   -2.9740   -1.5939    0.6121 H   0  0  0  0  0  0  0  0  0  0  0  0
   -2.0868   -1.6977   -2.8836 H   0  0  0  0  0  0  0  0  0  0  0  0
   -2.9745   -2.5060   -1.5002 H   0  0  0  0  0  0  0  0  0  0  0  0
   -3.2537    0.3653   -2.5669 H   0  0  0  0  0  0  0  0  0  0  0  0
   -7.0426   -0.1645   -2.3263 H   0  0  0  0  0  0  0  0  0  0  0  0
   -5.2765    3.5183    1.6923 H   0  0  0  0  0  0  0  0  0  0  0  0
   -5.1385   -1.9894   -2.0593 H   0  0  0  0  0  0  0  0  0  0  0  0
   -5.0126   -0.9378   -3.5054 H   0  0  0  0  0  0  0  0  0  0  0  0
   -8.5807    3.6172    0.8818 H   0  0  0  0  0  0  0  0  0  0  0  0
   -7.4136    4.8367    0.3661 H   0  0  0  0  0  0  0  0  0  0  0  0
  1 17  1  0
  1  2  2  0
  1  8  1  0
  3  5  2  0
  3  8  1  0
  4  6  1  0
  4  8  2  0
  5  7  1  0
  6  7  2  0
  7 21  1  0
  9 11  2  0
  9 12  1  0
  9 16  1  0
 10 15  1  0
 10 13  2  0
 10 18  1  0
 12 14  1  0
 12 17  1  0
 14 15  1  0
 19 23  1  0
 20 22  1  0
 20 21  1  0
 19 21  1  0
 22 31  1  0
 22 23  1  0
 23 25  1  0
 24 25  2  0
 24 26  1  0
 24 27  1  0
 25 30  1  0
 26 29  2  0
 27 31  1  0
 28 29  1  0
 28 30  1  0
 29 32  1  0
 30 33  2  0
  3 34  1  0
  4 35  1  0
  5 36  1  0
  6 37  1  0
 12 38  1  6
 14 39  1  0
 14 40  1  0
 15 41  1  0
 15 42  1  0
 16 43  1  0
 17 44  1  0
 18 45  1  0
 19 46  1  0
 19 47  1  0
 20 48  1  0
 20 49  1  0
 22 50  1  6
 27 51  1  0
 28 52  1  0
 31 53  1  0
 31 54  1  0
 32 55  1  0
 32 56  1  0
M  END

