347828522
     RDKit          3D

 28 30  0  0  1  0  0  0  0  0999 V2000
    2.3734    1.1030    0.4213 C   0  0  0  0  0  0  0  0  0  0  0  0
    1.1529    1.6811    0.2037 C   0  0  0  0  0  0  0  0  0  0  0  0
    0.0662    0.8573   -0.1172 C   0  0  0  0  0  0  0  0  0  0  0  0
    0.1990   -0.5256   -0.2198 C   0  0  0  0  0  0  0  0  0  0  0  0
    1.4570   -1.0421    0.0117 C   0  0  0  0  0  0  0  0  0  0  0  0
    2.5476   -0.2622    0.3297 C   0  0  0  0  0  0  0  0  0  0  0  0
    3.9135   -0.7950    0.5779 C   0  0  0  0  0  0  0  0  0  0  0  0
    4.4327   -1.1125   -0.6748 F   0  0  0  0  0  0  0  0  0  0  0  0
    4.6929    0.1421    1.1825 F   0  0  0  0  0  0  0  0  0  0  0  0
    3.8501   -1.9412    1.3288 F   0  0  0  0  0  0  0  0  0  0  0  0
   -1.1207   -1.0931   -0.5749 C   0  0  2  0  0  0  0  0  0  0  0  0
   -1.7251    0.0769   -1.3727 C   0  0  0  0  0  0  0  0  0  0  0  0
   -1.3467    1.2230   -0.4222 C   0  0  1  0  0  0  0  0  0  0  0  0
   -2.2298    1.1062    0.7711 C   0  0  0  0  0  0  0  0  0  0  0  0
   -2.9218   -0.1682    0.8525 N   0  0  0  0  0  0  0  0  0  0  0  0
   -2.0334   -1.2858    0.6076 C   0  0  0  0  0  0  0  0  0  0  0  0
    3.2132    1.7417    0.6740 H   0  0  0  0  0  0  0  0  0  0  0  0
    1.0023    2.7457    0.2692 H   0  0  0  0  0  0  0  0  0  0  0  0
    1.5968   -2.1050   -0.0381 H   0  0  0  0  0  0  0  0  0  0  0  0
   -1.0610   -1.9458   -1.2577 H   0  0  0  0  0  0  0  0  0  0  0  0
   -1.2095    0.1832   -2.3472 H   0  0  0  0  0  0  0  0  0  0  0  0
   -2.8015   -0.0562   -1.4928 H   0  0  0  0  0  0  0  0  0  0  0  0
   -1.4203    2.2094   -0.9247 H   0  0  0  0  0  0  0  0  0  0  0  0
   -1.7031    1.2406    1.7317 H   0  0  0  0  0  0  0  0  0  0  0  0
   -3.0268    1.8809    0.7264 H   0  0  0  0  0  0  0  0  0  0  0  0
   -3.7788   -0.1759    0.2889 H   0  0  0  0  0  0  0  0  0  0  0  0
   -1.4326   -1.4798    1.5218 H   0  0  0  0  0  0  0  0  0  0  0  0
   -2.6863   -2.2027    0.4347 H   0  0  0  0  0  0  0  0  0  0  0  0
  1  2  2  0
  2  3  1  0
  3  4  2  0
  4  5  1  0
  5  6  2  0
  1  6  1  0
  6  7  1  0
  7  8  1  0
  7  9  1  0
  7 10  1  0
  4 11  1  0
 11 12  1  0
 13 12  1  0
  3 13  1  0
 13 14  1  0
 14 15  1  0
 15 16  1  0
 11 16  1  0
  1 17  1  0
  2 18  1  0
  5 19  1  0
 11 20  1  6
 12 21  1  0
 12 22  1  0
 13 23  1  6
 14 24  1  0
 14 25  1  0
 15 26  1  0
 16 27  1  0
 16 28  1  0
M  END

