347828191
     RDKit          3D

 71 76  0  0  1  0  0  0  0  0999 V2000
    5.6660    0.7068    1.0907 C   0  0  0  0  0  0  0  0  0  0  0  0
    4.3381    0.6602    0.6606 C   0  0  0  0  0  0  0  0  0  0  0  0
    3.9570   -0.0925   -0.4311 C   0  0  0  0  0  0  0  0  0  0  0  0
    4.9547   -0.7956   -1.0763 C   0  0  0  0  0  0  0  0  0  0  0  0
    6.2738   -0.7509   -0.6523 C   0  0  0  0  0  0  0  0  0  0  0  0
    6.6530   -0.0003    0.4379 C   0  0  0  0  0  0  0  0  0  0  0  0
    8.0107    0.0449    0.8918 N   0  0  0  0  0  0  0  0  0  0  0  0
    9.1926   -0.3668    0.1770 C   0  0  0  0  0  0  0  0  0  0  0  0
   10.2724    0.5058    0.7524 C   0  0  1  0  0  0  0  0  0  0  0  0
    9.8343    0.8269    2.0465 O   0  0  0  0  0  0  0  0  0  0  0  0
    8.4957    0.5008    2.1482 C   0  0  0  0  0  0  0  0  0  0  0  0
    7.7568    0.5791    3.1910 O   0  0  0  0  0  0  0  0  0  0  0  0
   11.5242   -0.3629    0.8483 C   0  0  0  0  0  0  0  0  0  0  0  0
   11.9405   -0.6705   -0.4416 O   0  0  0  0  0  0  0  0  0  0  0  0
    4.6033   -1.5408   -2.1543 F   0  0  0  0  0  0  0  0  0  0  0  0
    2.6340   -0.1360   -0.8519 O   0  0  0  0  0  0  0  0  0  0  0  0
    1.6751    0.6026   -0.1568 C   0  0  0  0  0  0  0  0  0  0  0  0
    0.2820    0.4338   -0.7325 C   0  0  0  0  0  0  0  0  0  0  0  0
   -0.1058   -1.0035   -0.7366 C   0  0  0  0  0  0  0  0  0  0  0  0
   -1.5629   -1.2426   -0.9045 C   0  0  0  0  0  0  0  0  0  0  0  0
   -2.3061   -0.4575    0.0602 N   0  0  0  0  0  0  0  0  0  0  0  0
   -1.6167    0.5520    0.8091 C   0  0  0  0  0  0  0  0  0  0  0  0
   -0.6991    1.3601   -0.0727 C   0  0  0  0  0  0  0  0  0  0  0  0
   -3.6839   -0.7685    0.1987 C   0  0  0  0  0  0  0  0  0  0  0  0
   -4.7135    0.0271   -0.2467 C   0  0  0  0  0  0  0  0  0  0  0  0
   -6.0432   -0.3417   -0.1048 C   0  0  0  0  0  0  0  0  0  0  0  0
   -6.3649   -1.5549    0.5079 C   0  0  0  0  0  0  0  0  0  0  0  0
   -5.3378   -2.3479    0.9519 C   0  0  0  0  0  0  0  0  0  0  0  0
   -4.0179   -1.9630    0.8011 C   0  0  0  0  0  0  0  0  0  0  0  0
   -3.0638   -2.8019    1.2674 F   0  0  0  0  0  0  0  0  0  0  0  0
   -7.6694   -1.9734    0.6687 C   0  0  0  0  0  0  0  0  0  0  0  0
   -7.9168   -3.0786    1.2300 O   0  0  0  0  0  0  0  0  0  0  0  0
   -8.6795   -1.1757    0.2132 C   0  0  0  0  0  0  0  0  0  0  0  0
   -8.3399    0.0334   -0.3964 C   0  0  0  0  0  0  0  0  0  0  0  0
   -7.0658    0.4135   -0.5383 N   0  0  0  0  0  0  0  0  0  0  0  0
   -6.7782    1.6704   -1.1911 C   0  0  0  0  0  0  0  0  0  0  0  0
   -6.2399    2.8128   -0.3799 C   0  0  0  0  0  0  0  0  0  0  0  0
   -7.6017    2.8611   -0.9168 C   0  0  0  0  0  0  0  0  0  0  0  0
  -10.0745   -1.5422    0.3427 C   0  0  0  0  0  0  0  0  0  0  0  0
  -10.3500   -2.6318    0.9343 O   0  0  0  0  0  0  0  0  0  0  0  0
  -11.1242   -0.7938   -0.1288 O   0  0  0  0  0  0  0  0  0  0  0  0
    0.3954    0.8608   -2.0713 O   0  0  0  0  0  0  0  0  0  0  0  0
    5.9369    1.3076    1.9514 H   0  0  0  0  0  0  0  0  0  0  0  0
    3.6016    1.2324    1.2063 H   0  0  0  0  0  0  0  0  0  0  0  0
    7.0433   -1.3081   -1.1716 H   0  0  0  0  0  0  0  0  0  0  0  0
    9.4151   -1.4472    0.2942 H   0  0  0  0  0  0  0  0  0  0  0  0
    9.0107   -0.1108   -0.9017 H   0  0  0  0  0  0  0  0  0  0  0  0
   10.4663    1.4079    0.1328 H   0  0  0  0  0  0  0  0  0  0  0  0
   11.2189   -1.2904    1.3681 H   0  0  0  0  0  0  0  0  0  0  0  0
   12.3039    0.1159    1.4671 H   0  0  0  0  0  0  0  0  0  0  0  0
   12.3255   -1.5975   -0.3814 H   0  0  0  0  0  0  0  0  0  0  0  0
    1.8683    1.6880   -0.1379 H   0  0  0  0  0  0  0  0  0  0  0  0
    1.6263    0.2569    0.9101 H   0  0  0  0  0  0  0  0  0  0  0  0
    0.4006   -1.4664   -1.6372 H   0  0  0  0  0  0  0  0  0  0  0  0
    0.2412   -1.5108    0.1886 H   0  0  0  0  0  0  0  0  0  0  0  0
   -1.7472   -2.3332   -0.7769 H   0  0  0  0  0  0  0  0  0  0  0  0
   -1.9392   -0.9470   -1.9056 H   0  0  0  0  0  0  0  0  0  0  0  0
   -0.9872    0.1307    1.6210 H   0  0  0  0  0  0  0  0  0  0  0  0
   -2.3529    1.2110    1.3012 H   0  0  0  0  0  0  0  0  0  0  0  0
   -0.1932    2.1497    0.4908 H   0  0  0  0  0  0  0  0  0  0  0  0
   -1.3720    1.7866   -0.8693 H   0  0  0  0  0  0  0  0  0  0  0  0
   -4.4726    0.9611   -0.7184 H   0  0  0  0  0  0  0  0  0  0  0  0
   -5.5585   -3.2995    1.4341 H   0  0  0  0  0  0  0  0  0  0  0  0
   -9.1770    0.6370   -0.7437 H   0  0  0  0  0  0  0  0  0  0  0  0
   -6.4061    1.5192   -2.2380 H   0  0  0  0  0  0  0  0  0  0  0  0
   -6.0527    2.5709    0.6977 H   0  0  0  0  0  0  0  0  0  0  0  0
   -5.3943    3.3469   -0.8613 H   0  0  0  0  0  0  0  0  0  0  0  0
   -7.7685    3.5371   -1.7741 H   0  0  0  0  0  0  0  0  0  0  0  0
   -8.4646    2.8346   -0.2228 H   0  0  0  0  0  0  0  0  0  0  0  0
  -11.0153   -0.2947   -1.0196 H   0  0  0  0  0  0  0  0  0  0  0  0
    0.3382    1.8532   -2.0391 H   0  0  0  0  0  0  0  0  0  0  0  0
  1  2  2  0
  2  3  1  0
  3  4  2  0
  4  5  1  0
  5  6  2  0
  1  6  1  0
  6  7  1  0
  7  8  1  0
  8  9  1  0
  9 10  1  0
 10 11  1  0
  7 11  1  0
 11 12  2  0
  9 13  1  0
 13 14  1  0
  4 15  1  0
  3 16  1  0
 16 17  1  0
 17 18  1  0
 18 19  1  0
 19 20  1  0
 20 21  1  0
 21 22  1  0
 22 23  1  0
 18 23  1  0
 21 24  1  0
 24 25  2  0
 25 26  1  0
 26 27  2  0
 27 28  1  0
 28 29  2  0
 24 29  1  0
 29 30  1  0
 27 31  1  0
 31 32  2  0
 31 33  1  0
 33 34  2  0
 34 35  1  0
 26 35  1  0
 35 36  1  0
 36 37  1  0
 37 38  1  0
 36 38  1  0
 33 39  1  0
 39 40  2  0
 39 41  1  0
 18 42  1  0
  1 43  1  0
  2 44  1  0
  5 45  1  0
  8 46  1  0
  8 47  1  0
  9 48  1  6
 13 49  1  0
 13 50  1  0
 14 51  1  0
 17 52  1  0
 17 53  1  0
 19 54  1  0
 19 55  1  0
 20 56  1  0
 20 57  1  0
 22 58  1  0
 22 59  1  0
 23 60  1  0
 23 61  1  0
 25 62  1  0
 28 63  1  0
 34 64  1  0
 36 65  1  0
 37 66  1  0
 37 67  1  0
 38 68  1  0
 38 69  1  0
 41 70  1  0
 42 71  1  0
M  END

