347828301
     RDKit          3D

 75 78  0  0  1  0  0  0  0  0999 V2000
   -4.0554   -4.5184   -0.3364 C   0  0  0  0  0  0  0  0  0  0  0  0
   -3.5757   -3.9331    0.8113 C   0  0  0  0  0  0  0  0  0  0  0  0
   -2.8416   -2.7659    0.6812 C   0  0  0  0  0  0  0  0  0  0  0  0
   -2.6148   -2.2334   -0.5451 C   0  0  0  0  0  0  0  0  0  0  0  0
   -3.1047   -2.8347   -1.6853 C   0  0  0  0  0  0  0  0  0  0  0  0
   -3.8342   -3.9908   -1.5912 C   0  0  0  0  0  0  0  0  0  0  0  0
   -1.8325   -1.0040   -0.7936 C   0  0  0  0  0  0  0  0  0  0  0  0
   -2.3545   -2.1485    1.7716 F   0  0  0  0  0  0  0  0  0  0  0  0
   -3.8179   -4.4923    2.0776 O   0  0  0  0  0  0  0  0  0  0  0  0
   -4.5793   -5.6841    2.1267 C   0  0  0  0  0  0  0  0  0  0  0  0
   -2.4579    0.2479   -0.7690 C   0  0  0  0  0  0  0  0  0  0  0  0
   -1.8472    1.3985   -1.0049 N   0  0  0  0  0  0  0  0  0  0  0  0
   -0.5016    1.3013   -1.2917 C   0  0  0  0  0  0  0  0  0  0  0  0
    0.1706    0.1397   -1.3340 N   0  0  0  0  0  0  0  0  0  0  0  0
   -0.4868   -1.0118   -1.0866 C   0  0  0  0  0  0  0  0  0  0  0  0
    0.0822   -2.1393   -1.1114 O   0  0  0  0  0  0  0  0  0  0  0  0
    1.5624    0.0962   -1.6897 C   0  0  0  0  0  0  0  0  0  0  0  0
    0.1374    2.3498   -1.5334 O   0  0  0  0  0  0  0  0  0  0  0  0
   -2.4424    2.7069   -1.0692 C   0  0  0  0  0  0  0  0  0  0  0  0
   -3.9005    0.2087   -0.4304 C   0  0  0  0  0  0  0  0  0  0  0  0
   -2.8014    3.3595    0.1893 C   0  0  0  0  0  0  0  0  0  0  0  0
    2.5686    0.2738   -0.6228 C   0  0  2  0  0  0  0  0  0  0  0  0
    3.8854    0.1870   -1.2904 N   0  0  0  0  0  0  0  0  0  0  0  0
    4.8853    0.9815   -0.6261 C   0  0  0  0  0  0  0  0  0  0  0  0
    6.2487    0.7192   -1.2776 C   0  0  0  0  0  0  0  0  0  0  0  0
    7.3122    1.5525   -0.5823 C   0  0  0  0  0  0  0  0  0  0  0  0
    8.6313    1.2886   -1.1827 C   0  0  0  0  0  0  0  0  0  0  0  0
    9.7597    1.9258   -0.7020 O   0  0  0  0  0  0  0  0  0  0  0  0
    8.7265    0.4662   -2.1490 O   0  0  0  0  0  0  0  0  0  0  0  0
    2.6184   -0.7730    0.4195 C   0  0  0  0  0  0  0  0  0  0  0  0
    2.3522   -0.4662    1.7520 C   0  0  0  0  0  0  0  0  0  0  0  0
    2.4059   -1.4302    2.7442 C   0  0  0  0  0  0  0  0  0  0  0  0
    2.7297   -2.7394    2.4391 C   0  0  0  0  0  0  0  0  0  0  0  0
    2.9940   -3.0602    1.1366 C   0  0  0  0  0  0  0  0  0  0  0  0
    2.9342   -2.0825    0.1607 C   0  0  0  0  0  0  0  0  0  0  0  0
   -4.1246    3.7935    0.3598 C   0  0  0  0  0  0  0  0  0  0  0  0
   -4.4452    4.3056    1.6209 C   0  0  0  0  0  0  0  0  0  0  0  0
   -3.5204    4.3837    2.6313 C   0  0  0  0  0  0  0  0  0  0  0  0
   -2.2287    3.9588    2.4500 C   0  0  0  0  0  0  0  0  0  0  0  0
   -1.8850    3.4415    1.2015 C   0  0  0  0  0  0  0  0  0  0  0  0
   -0.5898    3.0349    1.1155 F   0  0  0  0  0  0  0  0  0  0  0  0
   -5.1461    3.8160   -0.6850 C   0  0  0  0  0  0  0  0  0  0  0  0
   -5.5229    2.6688   -1.2645 F   0  0  0  0  0  0  0  0  0  0  0  0
   -4.7447    4.6692   -1.7490 F   0  0  0  0  0  0  0  0  0  0  0  0
   -6.3113    4.4216   -0.1848 F   0  0  0  0  0  0  0  0  0  0  0  0
   -4.6369   -5.4461   -0.2123 H   0  0  0  0  0  0  0  0  0  0  0  0
   -2.9308   -2.4193   -2.6849 H   0  0  0  0  0  0  0  0  0  0  0  0
   -4.2373   -4.4994   -2.4747 H   0  0  0  0  0  0  0  0  0  0  0  0
   -5.6099   -5.4823    1.7204 H   0  0  0  0  0  0  0  0  0  0  0  0
   -4.1644   -6.4882    1.4676 H   0  0  0  0  0  0  0  0  0  0  0  0
   -4.6215   -6.1102    3.1462 H   0  0  0  0  0  0  0  0  0  0  0  0
    1.8050   -0.8321   -2.2782 H   0  0  0  0  0  0  0  0  0  0  0  0
    1.7250    0.9158   -2.4471 H   0  0  0  0  0  0  0  0  0  0  0  0
   -1.7351    3.4149   -1.5945 H   0  0  0  0  0  0  0  0  0  0  0  0
   -3.3251    2.6909   -1.7823 H   0  0  0  0  0  0  0  0  0  0  0  0
   -4.1659   -0.7588    0.0697 H   0  0  0  0  0  0  0  0  0  0  0  0
   -4.4597    0.2594   -1.3609 H   0  0  0  0  0  0  0  0  0  0  0  0
   -4.1809    0.9810    0.3032 H   0  0  0  0  0  0  0  0  0  0  0  0
    2.4700    1.2695   -0.1327 H   0  0  0  0  0  0  0  0  0  0  0  0
    4.1242   -0.7968   -1.3829 H   0  0  0  0  0  0  0  0  0  0  0  0
    4.9460    0.7747    0.4418 H   0  0  0  0  0  0  0  0  0  0  0  0
    4.6551    2.0668   -0.7590 H   0  0  0  0  0  0  0  0  0  0  0  0
    6.4758   -0.3727   -1.1438 H   0  0  0  0  0  0  0  0  0  0  0  0
    6.2419    0.9607   -2.3531 H   0  0  0  0  0  0  0  0  0  0  0  0
    7.0301    2.6309   -0.7603 H   0  0  0  0  0  0  0  0  0  0  0  0
    7.2666    1.2975    0.5106 H   0  0  0  0  0  0  0  0  0  0  0  0
   10.2276    2.6860   -1.1929 H   0  0  0  0  0  0  0  0  0  0  0  0
    2.0978    0.5410    2.0535 H   0  0  0  0  0  0  0  0  0  0  0  0
    2.2021   -1.2112    3.7923 H   0  0  0  0  0  0  0  0  0  0  0  0
    2.7664   -3.4694    3.2485 H   0  0  0  0  0  0  0  0  0  0  0  0
    3.2455   -4.0546    0.8631 H   0  0  0  0  0  0  0  0  0  0  0  0
    3.1399   -2.3975   -0.8632 H   0  0  0  0  0  0  0  0  0  0  0  0
   -5.4778    4.6481    1.7790 H   0  0  0  0  0  0  0  0  0  0  0  0
   -3.8079    4.7869    3.5967 H   0  0  0  0  0  0  0  0  0  0  0  0
   -1.5035    4.0257    3.2542 H   0  0  0  0  0  0  0  0  0  0  0  0
 17 22  1  0
  2  3  2  0
 22 23  1  0
  5  6  1  0
 23 24  1  0
  1  6  2  0
 24 25  1  0
  1  2  1  0
 25 26  1  0
  4  7  1  0
 26 27  1  0
  7 15  1  0
 27 28  1  0
 11 12  1  0
 27 29  2  0
 12 13  1  0
 22 30  1  0
 13 14  1  0
 30 31  2  0
 14 15  1  0
 31 32  1  0
  3  4  1  0
 32 33  2  0
 15 16  2  0
 33 34  1  0
  3  8  1  0
 34 35  2  0
 30 35  1  0
 14 17  1  0
 21 36  2  0
 36 37  1  0
 13 18  2  0
 37 38  2  0
  2  9  1  0
 38 39  1  0
 12 19  1  0
 39 40  2  0
 21 40  1  0
  4  5  2  0
 40 41  1  0
 11 20  1  0
 36 42  1  0
  9 10  1  0
 42 43  1  0
 19 21  1  0
 42 44  1  0
  7 11  2  0
 42 45  1  0
  1 46  1  0
  5 47  1  0
  6 48  1  0
 10 49  1  0
 10 50  1  0
 10 51  1  0
 17 52  1  0
 17 53  1  0
 19 54  1  0
 19 55  1  0
 20 56  1  0
 20 57  1  0
 20 58  1  0
 22 59  1  1
 23 60  1  0
 24 61  1  0
 24 62  1  0
 25 63  1  0
 25 64  1  0
 26 65  1  0
 26 66  1  0
 28 67  1  0
 31 68  1  0
 32 69  1  0
 33 70  1  0
 34 71  1  0
 35 72  1  0
 37 73  1  0
 38 74  1  0
 39 75  1  0
M  END

