347828190
     RDKit          3D

 15 15  0  0  0  0  0  0  0  0999 V2000
    1.6416    0.8871    0.0543 N   0  0  0  0  0  0  0  0  0  0  0  0
    0.2574    1.0776   -0.2138 C   0  0  0  0  0  0  0  0  0  0  0  0
   -0.3176    2.1869   -0.5616 N   0  0  0  0  0  0  0  0  0  0  0  0
   -0.4330   -0.1640   -0.0388 N   0  0  0  0  0  0  0  0  0  0  0  0
   -1.8155   -0.4187    0.2359 C   0  0  0  0  0  0  0  0  0  0  0  0
    0.6025   -1.1634   -0.2047 C   0  0  0  0  0  0  0  0  0  0  0  0
    1.7790   -0.4855    0.3941 C   0  0  0  0  0  0  0  0  0  0  0  0
    2.7174   -0.9941    1.0668 O   0  0  0  0  0  0  0  0  0  0  0  0
    2.4066    1.6230    0.0077 H   0  0  0  0  0  0  0  0  0  0  0  0
   -1.3420    2.2307   -0.7376 H   0  0  0  0  0  0  0  0  0  0  0  0
   -1.9692   -1.3381    0.8313 H   0  0  0  0  0  0  0  0  0  0  0  0
   -2.4344   -0.4226   -0.7087 H   0  0  0  0  0  0  0  0  0  0  0  0
   -2.2831    0.4052    0.8521 H   0  0  0  0  0  0  0  0  0  0  0  0
    0.3557   -2.1130    0.3050 H   0  0  0  0  0  0  0  0  0  0  0  0
    0.8344   -1.3110   -1.2820 H   0  0  0  0  0  0  0  0  0  0  0  0
  1  2  1  0
  2  3  2  3
  2  4  1  0
  4  5  1  0
  4  6  1  0
  6  7  1  0
  7  8  2  0
  1  7  1  0
  1  9  1  0
  3 10  1  0
  5 11  1  0
  5 12  1  0
  5 13  1  0
  6 14  1  0
  6 15  1  0
M  END

