347828242
     RDKit          3D

 55 58  0  0  0  0  0  0  0  0999 V2000
    3.0669   -3.0720   -0.0376 C   0  0  0  0  0  0  0  0  0  0  0  0
    3.9600   -1.8904    0.1018 C   0  0  0  0  0  0  0  0  0  0  0  0
    5.2840   -2.0797    0.1142 N   0  0  0  0  0  0  0  0  0  0  0  0
    6.1811   -1.0859    0.2353 C   0  0  0  0  0  0  0  0  0  0  0  0
    7.5411   -1.3549    0.2307 C   0  0  0  0  0  0  0  0  0  0  0  0
    8.4315   -0.3139    0.3469 C   0  0  0  0  0  0  0  0  0  0  0  0
    7.9326    0.9502    0.4633 C   0  0  0  0  0  0  0  0  0  0  0  0
    6.5665    1.2676    0.4731 C   0  0  0  0  0  0  0  0  0  0  0  0
    5.6873    0.2203    0.3553 C   0  0  0  0  0  0  0  0  0  0  0  0
    4.3248    0.3810    0.3382 C   0  0  0  0  0  0  0  0  0  0  0  0
    3.8440    1.5164    0.4380 O   0  0  0  0  0  0  0  0  0  0  0  0
    3.4485   -0.6636    0.2125 N   0  0  0  0  0  0  0  0  0  0  0  0
    2.0458   -0.4559    0.1996 C   0  0  0  0  0  0  0  0  0  0  0  0
    1.2802   -0.6689    1.3271 C   0  0  0  0  0  0  0  0  0  0  0  0
   -0.0833   -0.4692    1.3223 C   0  0  0  0  0  0  0  0  0  0  0  0
   -0.7024   -0.0418    0.1497 C   0  0  0  0  0  0  0  0  0  0  0  0
    0.0912    0.1627   -0.9621 C   0  0  0  0  0  0  0  0  0  0  0  0
    1.4510   -0.0392   -0.9473 C   0  0  0  0  0  0  0  0  0  0  0  0
   -2.0734    0.1615    0.1345 O   0  0  0  0  0  0  0  0  0  0  0  0
   -2.6835    0.5967   -1.0696 C   0  0  0  0  0  0  0  0  0  0  0  0
   -4.1914    0.7548   -0.8700 C   0  0  0  0  0  0  0  0  0  0  0  0
   -4.7647   -0.5816   -0.4655 C   0  0  0  0  0  0  0  0  0  0  0  0
   -6.1662   -0.5710   -0.2470 N   0  0  0  0  0  0  0  0  0  0  0  0
   -6.9901   -0.3728   -1.3895 C   0  0  0  0  0  0  0  0  0  0  0  0
   -7.9043    0.7846   -1.1536 C   0  0  0  0  0  0  0  0  0  0  0  0
   -7.8602    0.9589    0.3589 C   0  0  0  0  0  0  0  0  0  0  0  0
   -6.6360    0.2366    0.8195 C   0  0  0  0  0  0  0  0  0  0  0  0
    6.0818    2.6333    0.6346 C   0  0  0  0  0  0  0  0  0  0  0  0
    5.3532    2.8889    1.7736 F   0  0  0  0  0  0  0  0  0  0  0  0
    5.5383    3.1848   -0.5113 F   0  0  0  0  0  0  0  0  0  0  0  0
    7.2298    3.4276    0.8327 F   0  0  0  0  0  0  0  0  0  0  0  0
    3.5263   -3.8724   -0.6587 H   0  0  0  0  0  0  0  0  0  0  0  0
    2.1295   -2.7809   -0.5584 H   0  0  0  0  0  0  0  0  0  0  0  0
    2.7969   -3.4062    0.9705 H   0  0  0  0  0  0  0  0  0  0  0  0
    7.9305   -2.3603    0.1390 H   0  0  0  0  0  0  0  0  0  0  0  0
    9.5133   -0.4856    0.3462 H   0  0  0  0  0  0  0  0  0  0  0  0
    8.6087    1.7855    0.5557 H   0  0  0  0  0  0  0  0  0  0  0  0
    1.7157   -1.0011    2.2595 H   0  0  0  0  0  0  0  0  0  0  0  0
   -0.6907   -0.6379    2.2167 H   0  0  0  0  0  0  0  0  0  0  0  0
   -0.4080    0.4978   -1.8743 H   0  0  0  0  0  0  0  0  0  0  0  0
    2.0249    0.1365   -1.8476 H   0  0  0  0  0  0  0  0  0  0  0  0
   -2.2387    1.6003   -1.2871 H   0  0  0  0  0  0  0  0  0  0  0  0
   -2.4300   -0.0418   -1.9261 H   0  0  0  0  0  0  0  0  0  0  0  0
   -4.3263    1.5335   -0.1152 H   0  0  0  0  0  0  0  0  0  0  0  0
   -4.6002    1.1075   -1.8258 H   0  0  0  0  0  0  0  0  0  0  0  0
   -4.5170   -1.3115   -1.2458 H   0  0  0  0  0  0  0  0  0  0  0  0
   -4.2559   -0.8841    0.4702 H   0  0  0  0  0  0  0  0  0  0  0  0
   -7.6367   -1.2969   -1.4743 H   0  0  0  0  0  0  0  0  0  0  0  0
   -6.4210   -0.2937   -2.3405 H   0  0  0  0  0  0  0  0  0  0  0  0
   -7.5624    1.7179   -1.6602 H   0  0  0  0  0  0  0  0  0  0  0  0
   -8.9314    0.5369   -1.5030 H   0  0  0  0  0  0  0  0  0  0  0  0
   -7.8826    2.0262    0.6530 H   0  0  0  0  0  0  0  0  0  0  0  0
   -8.8016    0.5094    0.7606 H   0  0  0  0  0  0  0  0  0  0  0  0
   -6.9570   -0.4485    1.6554 H   0  0  0  0  0  0  0  0  0  0  0  0
   -5.8703    0.9044    1.2612 H   0  0  0  0  0  0  0  0  0  0  0  0
  1  2  1  0
  2  3  2  0
  3  4  1  0
  4  5  2  0
  5  6  1  0
  6  7  2  0
  7  8  1  0
  8  9  2  0
  4  9  1  0
  9 10  1  0
 10 11  2  0
 10 12  1  0
  2 12  1  0
 12 13  1  0
 13 14  2  0
 14 15  1  0
 15 16  2  0
 16 17  1  0
 17 18  2  0
 13 18  1  0
 16 19  1  0
 19 20  1  0
 20 21  1  0
 21 22  1  0
 22 23  1  0
 23 24  1  0
 24 25  1  0
 25 26  1  0
 26 27  1  0
 23 27  1  0
  8 28  1  0
 28 29  1  0
 28 30  1  0
 28 31  1  0
  1 32  1  0
  1 33  1  0
  1 34  1  0
  5 35  1  0
  6 36  1  0
  7 37  1  0
 14 38  1  0
 15 39  1  0
 17 40  1  0
 18 41  1  0
 20 42  1  0
 20 43  1  0
 21 44  1  0
 21 45  1  0
 22 46  1  0
 22 47  1  0
 24 48  1  0
 24 49  1  0
 25 50  1  0
 25 51  1  0
 26 52  1  0
 26 53  1  0
 27 54  1  0
 27 55  1  0
M  END

