347828069
     RDKit          3D

 76 78  0  0  1  0  0  0  0  0999 V2000
   -2.6482   -0.1664   -2.5299 C   0  0  0  0  0  0  0  0  0  0  0  0
   -1.8691   -0.5852   -1.3292 C   0  0  0  0  0  0  0  0  0  0  0  0
   -0.6073   -1.1191   -1.4393 C   0  0  0  0  0  0  0  0  0  0  0  0
    0.1202   -1.5103   -0.3214 C   0  0  0  0  0  0  0  0  0  0  0  0
   -0.4419   -1.3573    0.9260 C   0  0  0  0  0  0  0  0  0  0  0  0
   -1.7249   -0.8185    1.1060 C   0  0  0  0  0  0  0  0  0  0  0  0
   -2.3777   -0.4584   -0.0406 C   0  0  0  0  0  0  0  0  0  0  0  0
   -3.7198    0.0994    0.0373 C   0  0  0  0  0  0  0  0  0  0  0  0
   -4.7924   -0.6135    0.4795 C   0  0  0  0  0  0  0  0  0  0  0  0
   -6.0424   -0.0283    0.4716 C   0  0  0  0  0  0  0  0  0  0  0  0
   -6.3022    1.2476    0.0421 C   0  0  0  0  0  0  0  0  0  0  0  0
   -5.1683    1.9449   -0.4011 C   0  0  0  0  0  0  0  0  0  0  0  0
   -3.9171    1.3833   -0.4024 C   0  0  0  0  0  0  0  0  0  0  0  0
   -7.6499    1.8605    0.0364 C   0  0  0  0  0  0  0  0  0  0  0  0
   -8.5548    0.9690   -0.7801 C   0  0  0  0  0  0  0  0  0  0  0  0
   -8.1607    1.9178    1.4489 C   0  0  0  0  0  0  0  0  0  0  0  0
   -7.6390    3.2199   -0.6189 C   0  0  0  0  0  0  0  0  0  0  0  0
   -2.3064   -0.6715    2.4549 C   0  0  0  0  0  0  0  0  0  0  0  0
    1.3607   -2.0260   -0.5411 O   0  0  0  0  0  0  0  0  0  0  0  0
    2.2943   -2.5345    0.3410 C   0  0  1  0  0  0  0  0  0  0  0  0
    2.7478   -3.9400   -0.0842 C   0  0  0  0  0  0  0  0  0  0  0  0
    1.5161   -4.8522   -0.1004 C   0  0  0  0  0  0  0  0  0  0  0  0
    1.8982   -6.2487   -0.5165 C   0  0  0  0  0  0  0  0  0  0  0  0
    0.7954   -7.0742   -0.5334 F   0  0  0  0  0  0  0  0  0  0  0  0
    2.4341   -6.2088   -1.8068 F   0  0  0  0  0  0  0  0  0  0  0  0
    2.8786   -6.7593    0.3064 F   0  0  0  0  0  0  0  0  0  0  0  0
    3.4654   -1.6088    0.3993 C   0  0  0  0  0  0  0  0  0  0  0  0
    4.7700   -2.0576    0.2894 C   0  0  0  0  0  0  0  0  0  0  0  0
    5.8027   -1.1539    0.3710 C   0  0  0  0  0  0  0  0  0  0  0  0
    5.5196    0.1666    0.5590 C   0  0  0  0  0  0  0  0  0  0  0  0
    4.2097    0.6135    0.6685 C   0  0  0  0  0  0  0  0  0  0  0  0
    3.1645   -0.2802    0.5881 C   0  0  0  0  0  0  0  0  0  0  0  0
    6.5875    1.1474    0.6728 C   0  0  0  0  0  0  0  0  0  0  0  0
    7.6277    0.7975    1.2888 O   0  0  0  0  0  0  0  0  0  0  0  0
    6.3710    2.4061    0.0864 N   0  0  0  0  0  0  0  0  0  0  0  0
    7.3556    3.4458    0.1543 C   0  0  0  0  0  0  0  0  0  0  0  0
    8.6361    2.9782   -0.4994 C   0  0  0  0  0  0  0  0  0  0  0  0
    9.6415    4.0841   -0.4399 C   0  0  0  0  0  0  0  0  0  0  0  0
   10.7718    3.8644   -0.9161 O   0  0  0  0  0  0  0  0  0  0  0  0
    9.2957    5.2954    0.1256 O   0  0  0  0  0  0  0  0  0  0  0  0
   -2.2987    0.7948   -2.9384 H   0  0  0  0  0  0  0  0  0  0  0  0
   -2.4234   -0.9196   -3.3153 H   0  0  0  0  0  0  0  0  0  0  0  0
   -3.7348   -0.2128   -2.3700 H   0  0  0  0  0  0  0  0  0  0  0  0
   -0.1696   -1.2347   -2.4321 H   0  0  0  0  0  0  0  0  0  0  0  0
    0.0727   -1.6485    1.8396 H   0  0  0  0  0  0  0  0  0  0  0  0
   -4.6766   -1.6588    0.8520 H   0  0  0  0  0  0  0  0  0  0  0  0
   -6.8891   -0.6096    0.8370 H   0  0  0  0  0  0  0  0  0  0  0  0
   -5.3101    2.9605   -0.7498 H   0  0  0  0  0  0  0  0  0  0  0  0
   -3.0488    1.9884   -0.7745 H   0  0  0  0  0  0  0  0  0  0  0  0
   -8.2428   -0.0822   -0.7642 H   0  0  0  0  0  0  0  0  0  0  0  0
   -8.5676    1.2774   -1.8664 H   0  0  0  0  0  0  0  0  0  0  0  0
   -9.6193    1.1040   -0.4547 H   0  0  0  0  0  0  0  0  0  0  0  0
   -9.1095    2.4814    1.4512 H   0  0  0  0  0  0  0  0  0  0  0  0
   -7.4491    2.4432    2.1266 H   0  0  0  0  0  0  0  0  0  0  0  0
   -8.3951    0.8972    1.8070 H   0  0  0  0  0  0  0  0  0  0  0  0
   -8.6831    3.5976   -0.6366 H   0  0  0  0  0  0  0  0  0  0  0  0
   -6.9545    3.8820   -0.0733 H   0  0  0  0  0  0  0  0  0  0  0  0
   -7.2566    3.1124   -1.6656 H   0  0  0  0  0  0  0  0  0  0  0  0
   -1.4918   -0.9202    3.1899 H   0  0  0  0  0  0  0  0  0  0  0  0
   -2.5746    0.3900    2.7099 H   0  0  0  0  0  0  0  0  0  0  0  0
   -3.1001   -1.3986    2.6731 H   0  0  0  0  0  0  0  0  0  0  0  0
    1.9505   -2.6280    1.3888 H   0  0  0  0  0  0  0  0  0  0  0  0
    3.4225   -4.3414    0.6942 H   0  0  0  0  0  0  0  0  0  0  0  0
    3.2429   -3.9220   -1.0590 H   0  0  0  0  0  0  0  0  0  0  0  0
    0.7742   -4.3873   -0.7529 H   0  0  0  0  0  0  0  0  0  0  0  0
    1.0932   -4.9041    0.9459 H   0  0  0  0  0  0  0  0  0  0  0  0
    4.9689   -3.1303    0.1377 H   0  0  0  0  0  0  0  0  0  0  0  0
    6.8195   -1.5505    0.2781 H   0  0  0  0  0  0  0  0  0  0  0  0
    3.9679    1.6614    0.8228 H   0  0  0  0  0  0  0  0  0  0  0  0
    2.1231    0.0735    0.6735 H   0  0  0  0  0  0  0  0  0  0  0  0
    5.4635    2.6158   -0.4248 H   0  0  0  0  0  0  0  0  0  0  0  0
    7.5336    3.7585    1.2127 H   0  0  0  0  0  0  0  0  0  0  0  0
    6.9879    4.3811   -0.3564 H   0  0  0  0  0  0  0  0  0  0  0  0
    9.0623    2.1697    0.1559 H   0  0  0  0  0  0  0  0  0  0  0  0
    8.4778    2.6142   -1.5284 H   0  0  0  0  0  0  0  0  0  0  0  0
    8.6922    5.9772   -0.3400 H   0  0  0  0  0  0  0  0  0  0  0  0
  1  2  1  0
  2  3  2  0
  3  4  1  0
  4  5  2  0
  5  6  1  0
  6  7  2  0
  2  7  1  0
  7  8  1  0
  8  9  2  0
  9 10  1  0
 10 11  2  0
 11 12  1  0
 12 13  2  0
  8 13  1  0
 11 14  1  0
 14 15  1  0
 14 16  1  0
 14 17  1  0
  6 18  1  0
  4 19  1  0
 20 19  1  0
 20 21  1  0
 21 22  1  0
 22 23  1  0
 23 24  1  0
 23 25  1  0
 23 26  1  0
 20 27  1  0
 27 28  2  0
 28 29  1  0
 29 30  2  0
 30 31  1  0
 31 32  2  0
 27 32  1  0
 30 33  1  0
 33 34  2  0
 33 35  1  0
 35 36  1  0
 36 37  1  0
 37 38  1  0
 38 39  2  0
 38 40  1  0
  1 41  1  0
  1 42  1  0
  1 43  1  0
  3 44  1  0
  5 45  1  0
  9 46  1  0
 10 47  1  0
 12 48  1  0
 13 49  1  0
 15 50  1  0
 15 51  1  0
 15 52  1  0
 16 53  1  0
 16 54  1  0
 16 55  1  0
 17 56  1  0
 17 57  1  0
 17 58  1  0
 18 59  1  0
 18 60  1  0
 18 61  1  0
 20 62  1  1
 21 63  1  0
 21 64  1  0
 22 65  1  0
 22 66  1  0
 28 67  1  0
 29 68  1  0
 31 69  1  0
 32 70  1  0
 35 71  1  0
 36 72  1  0
 36 73  1  0
 37 74  1  0
 37 75  1  0
 40 76  1  0
M  END

