347828585
     RDKit          3D

 79 83  0  0  1  0  0  0  0  0999 V2000
    1.8392    0.6432   -3.2560 C   0  0  0  0  0  0  0  0  0  0  0  0
    0.4745    0.1441   -2.8207 C   0  0  2  0  0  0  0  0  0  0  0  0
   -0.3208    1.2155   -2.1247 C   0  0  0  0  0  0  0  0  0  0  0  0
   -0.7528    0.6513   -0.7957 C   0  0  1  0  0  0  0  0  0  0  0  0
   -2.2052    0.9130   -0.4970 C   0  0  2  0  0  0  0  0  0  0  0  0
   -2.3614    2.4159   -0.2034 C   0  0  0  0  0  0  0  0  0  0  0  0
   -3.7544    2.7891    0.1508 C   0  0  1  0  0  0  0  0  0  0  0  0
   -4.3927    1.7622    1.0275 C   0  0  0  0  0  0  0  0  0  0  0  0
   -5.0981    2.1823    2.0333 C   0  0  0  0  0  0  0  0  0  0  0  0
   -5.7688    1.2749    2.9637 C   0  0  0  0  0  0  0  0  0  0  0  0
   -6.4484    1.6659    3.9311 O   0  0  0  0  0  0  0  0  0  0  0  0
   -5.5928   -0.1446    2.6882 C   0  0  0  0  0  0  0  0  0  0  0  0
   -4.8821   -0.5887    1.6738 C   0  0  0  0  0  0  0  0  0  0  0  0
   -4.2132    0.3161    0.7418 C   0  0  2  0  0  0  0  0  0  0  0  0
   -2.7112    0.1223    0.6396 C   0  0  1  0  0  0  0  0  0  0  0  0
   -2.2844   -1.2883    0.7205 C   0  0  2  0  0  0  0  0  0  0  0  0
   -0.9081   -1.5609    0.1443 C   0  0  0  0  0  0  0  0  0  0  0  0
   -0.6329   -0.8484   -1.1067 C   0  0  2  0  0  0  0  0  0  0  0  0
    0.7811   -0.8260   -1.6199 C   0  0  1  0  0  0  0  0  0  0  0  0
    1.3685   -2.0653   -2.0397 C   0  0  0  0  0  0  0  0  0  0  0  0
    0.8118   -2.9604   -2.6877 O   0  0  0  0  0  0  0  0  0  0  0  0
    2.7171   -2.3128   -1.6922 O   0  0  0  0  0  0  0  0  0  0  0  0
    3.3486   -3.5156   -2.0795 C   0  0  0  0  0  0  0  0  0  0  0  0
    3.3081   -3.5617   -3.5442 C   0  0  0  0  0  0  0  0  0  0  0  0
    3.2803   -3.5931   -4.7155 N   0  0  0  0  0  0  0  0  0  0  0  0
    1.6305   -0.0100   -0.8481 O   0  0  0  0  0  0  0  0  0  0  0  0
    2.3519   -0.2782    0.2645 C   0  0  0  0  0  0  0  0  0  0  0  0
    2.3168   -1.4490    0.7200 O   0  0  0  0  0  0  0  0  0  0  0  0
    3.1570    0.7904    0.9173 C   0  0  0  0  0  0  0  0  0  0  0  0
    3.4875    0.7844    2.3355 C   0  0  0  0  0  0  0  0  0  0  0  0
    4.5115    0.2752    1.3766 C   0  0  0  0  0  0  0  0  0  0  0  0
    5.6663    1.1479    0.9499 C   0  0  0  0  0  0  0  0  0  0  0  0
    4.7892   -1.1913    1.3757 C   0  0  0  0  0  0  0  0  0  0  0  0
    3.8804    2.1416    2.9460 C   0  0  0  0  0  0  0  0  0  0  0  0
    2.9434   -0.1516    3.3517 C   0  0  0  0  0  0  0  0  0  0  0  0
   -1.5397   -1.2117   -2.2578 C   0  0  0  0  0  0  0  0  0  0  0  0
   -3.1931   -2.1340    0.1262 O   0  0  0  0  0  0  0  0  0  0  0  0
   -2.2368    0.7837    1.8016 F   0  0  0  0  0  0  0  0  0  0  0  0
   -4.8960    0.1011   -0.6088 C   0  0  0  0  0  0  0  0  0  0  0  0
   -3.8374    4.0347    0.7532 F   0  0  0  0  0  0  0  0  0  0  0  0
    2.1945    1.4125   -2.5467 H   0  0  0  0  0  0  0  0  0  0  0  0
    1.8322    1.0482   -4.2908 H   0  0  0  0  0  0  0  0  0  0  0  0
    2.5644   -0.2092   -3.2051 H   0  0  0  0  0  0  0  0  0  0  0  0
    0.0132   -0.3643   -3.6406 H   0  0  0  0  0  0  0  0  0  0  0  0
   -1.1591    1.6209   -2.7019 H   0  0  0  0  0  0  0  0  0  0  0  0
    0.4279    2.0257   -1.8691 H   0  0  0  0  0  0  0  0  0  0  0  0
   -0.0824    0.8597    0.0368 H   0  0  0  0  0  0  0  0  0  0  0  0
   -2.7828    0.7579   -1.4264 H   0  0  0  0  0  0  0  0  0  0  0  0
   -1.9525    2.9405   -1.0656 H   0  0  0  0  0  0  0  0  0  0  0  0
   -1.6829    2.6573    0.6651 H   0  0  0  0  0  0  0  0  0  0  0  0
   -4.3618    2.8635   -0.7672 H   0  0  0  0  0  0  0  0  0  0  0  0
   -5.1986    3.2746    2.1966 H   0  0  0  0  0  0  0  0  0  0  0  0
   -6.0528   -0.9043    3.3255 H   0  0  0  0  0  0  0  0  0  0  0  0
   -4.8025   -1.6765    1.5298 H   0  0  0  0  0  0  0  0  0  0  0  0
   -2.2255   -1.6051    1.7945 H   0  0  0  0  0  0  0  0  0  0  0  0
   -0.1613   -1.2583    0.9081 H   0  0  0  0  0  0  0  0  0  0  0  0
   -0.7975   -2.6477   -0.0003 H   0  0  0  0  0  0  0  0  0  0  0  0
    2.8671   -4.4070   -1.6229 H   0  0  0  0  0  0  0  0  0  0  0  0
    4.3839   -3.4791   -1.6961 H   0  0  0  0  0  0  0  0  0  0  0  0
    3.1030    1.7718    0.4130 H   0  0  0  0  0  0  0  0  0  0  0  0
    5.7033    1.1126   -0.1659 H   0  0  0  0  0  0  0  0  0  0  0  0
    5.5326    2.2089    1.2230 H   0  0  0  0  0  0  0  0  0  0  0  0
    6.6121    0.7112    1.3088 H   0  0  0  0  0  0  0  0  0  0  0  0
    5.8615   -1.3414    1.5701 H   0  0  0  0  0  0  0  0  0  0  0  0
    4.2332   -1.7652    2.1357 H   0  0  0  0  0  0  0  0  0  0  0  0
    4.6179   -1.5914    0.3337 H   0  0  0  0  0  0  0  0  0  0  0  0
    3.2183    2.3840    3.7997 H   0  0  0  0  0  0  0  0  0  0  0  0
    3.7199    2.9513    2.1988 H   0  0  0  0  0  0  0  0  0  0  0  0
    4.9477    2.1257    3.1906 H   0  0  0  0  0  0  0  0  0  0  0  0
    2.3470   -0.9826    3.0016 H   0  0  0  0  0  0  0  0  0  0  0  0
    3.8157   -0.5719    3.9283 H   0  0  0  0  0  0  0  0  0  0  0  0
    2.3480    0.4437    4.1005 H   0  0  0  0  0  0  0  0  0  0  0  0
   -2.4535   -1.7164   -1.9300 H   0  0  0  0  0  0  0  0  0  0  0  0
   -1.0791   -1.8734   -3.0083 H   0  0  0  0  0  0  0  0  0  0  0  0
   -1.8193   -0.2858   -2.8474 H   0  0  0  0  0  0  0  0  0  0  0  0
   -3.1094   -3.0727    0.3622 H   0  0  0  0  0  0  0  0  0  0  0  0
   -4.4812   -0.7582   -1.1523 H   0  0  0  0  0  0  0  0  0  0  0  0
   -5.9760   -0.0965   -0.4656 H   0  0  0  0  0  0  0  0  0  0  0  0
   -4.7987    0.9738   -1.2722 H   0  0  0  0  0  0  0  0  0  0  0  0
  2  1  1  0
  2  3  1  0
  4  3  1  0
  4  5  1  0
  5  6  1  0
  6  7  1  0
  7  8  1  0
  8  9  2  0
  9 10  1  0
 10 11  2  0
 10 12  1  0
 12 13  2  0
 13 14  1  0
  8 14  1  0
 14 15  1  0
  5 15  1  0
 15 16  1  0
 16 17  1  0
 17 18  1  0
  4 18  1  0
 18 19  1  0
  2 19  1  0
 19 20  1  0
 20 21  2  0
 20 22  1  0
 22 23  1  0
 23 24  1  0
 24 25  3  0
 19 26  1  1
 26 27  1  0
 27 28  2  0
 27 29  1  0
 29 30  1  0
 30 31  1  0
 29 31  1  0
 31 32  1  0
 31 33  1  0
 30 34  1  0
 30 35  1  0
 18 36  1  6
 16 37  1  0
 15 38  1  1
 14 39  1  6
  7 40  1  0
  1 41  1  0
  1 42  1  0
  1 43  1  0
  2 44  1  6
  3 45  1  0
  3 46  1  0
  4 47  1  1
  5 48  1  6
  6 49  1  0
  6 50  1  0
  7 51  1  6
  9 52  1  0
 12 53  1  0
 13 54  1  0
 16 55  1  1
 17 56  1  0
 17 57  1  0
 23 58  1  0
 23 59  1  0
 29 60  1  0
 32 61  1  0
 32 62  1  0
 32 63  1  0
 33 64  1  0
 33 65  1  0
 33 66  1  0
 34 67  1  0
 34 68  1  0
 34 69  1  0
 35 70  1  0
 35 71  1  0
 35 72  1  0
 36 73  1  0
 36 74  1  0
 36 75  1  0
 37 76  1  0
 39 77  1  0
 39 78  1  0
 39 79  1  0
M  END

