347827838
     RDKit          3D

 51 54  0  0  1  0  0  0  0  0999 V2000
   -3.0084   -2.4247    1.3357 C   0  0  0  0  0  0  0  0  0  0  0  0
   -2.1642   -1.8883    0.2544 C   0  0  0  0  0  0  0  0  0  0  0  0
   -1.8672   -0.4231    0.3169 C   0  0  0  0  0  0  0  0  0  0  0  0
   -1.1447   -0.1289    1.6115 C   0  0  0  0  0  0  0  0  0  0  0  0
    0.3294   -0.4565    1.4876 C   0  0  0  0  0  0  0  0  0  0  0  0
    0.9785    0.4593    0.4723 C   0  0  0  0  0  0  0  0  0  0  0  0
    0.0914    0.8451   -0.6401 C   0  0  0  0  0  0  0  0  0  0  0  0
   -1.0715   -0.0661   -0.8896 C   0  0  0  0  0  0  0  0  0  0  0  0
   -1.9974    0.6380   -1.8618 C   0  0  0  0  0  0  0  0  0  0  0  0
   -3.3623    0.4732   -1.2831 C   0  0  0  0  0  0  0  0  0  0  0  0
   -3.0867    0.4402    0.1976 C   0  0  0  0  0  0  0  0  0  0  0  0
   -2.8087    1.7671    0.6874 C   0  0  0  0  0  0  0  0  0  0  0  0
   -2.5917    2.8950    1.1131 C   0  0  0  0  0  0  0  0  0  0  0  0
   -4.1966   -0.0629    0.8526 O   0  0  0  0  0  0  0  0  0  0  0  0
    0.7781    1.0054   -1.9748 C   0  0  0  0  0  0  0  0  0  0  0  0
    2.1969    1.5008   -1.8502 C   0  0  0  0  0  0  0  0  0  0  0  0
    2.9375    0.4852   -1.0537 C   0  0  0  0  0  0  0  0  0  0  0  0
    4.1937    0.1852   -1.3150 C   0  0  0  0  0  0  0  0  0  0  0  0
    4.8337   -0.8173   -0.4843 C   0  0  0  0  0  0  0  0  0  0  0  0
    5.6225   -1.6461   -1.0003 O   0  0  0  0  0  0  0  0  0  0  0  0
    4.5197   -0.8137    0.9613 C   0  0  0  0  0  0  0  0  0  0  0  0
    3.1861   -0.2010    1.2689 C   0  0  0  0  0  0  0  0  0  0  0  0
    2.2669   -0.2107    0.0493 C   0  0  0  0  0  0  0  0  0  0  0  0
   -2.5887   -3.3695    1.7901 H   0  0  0  0  0  0  0  0  0  0  0  0
   -3.9858   -2.7645    0.8828 H   0  0  0  0  0  0  0  0  0  0  0  0
   -3.2645   -1.7638    2.1545 H   0  0  0  0  0  0  0  0  0  0  0  0
   -2.5882   -2.1226   -0.7659 H   0  0  0  0  0  0  0  0  0  0  0  0
   -1.1817   -2.4228    0.2691 H   0  0  0  0  0  0  0  0  0  0  0  0
   -1.5287   -0.7393    2.4549 H   0  0  0  0  0  0  0  0  0  0  0  0
   -1.3196    0.9295    1.8848 H   0  0  0  0  0  0  0  0  0  0  0  0
    0.7629   -0.2724    2.5140 H   0  0  0  0  0  0  0  0  0  0  0  0
    0.4137   -1.5112    1.1854 H   0  0  0  0  0  0  0  0  0  0  0  0
    1.3027    1.3719    1.0559 H   0  0  0  0  0  0  0  0  0  0  0  0
   -0.3470    1.8596   -0.4023 H   0  0  0  0  0  0  0  0  0  0  0  0
   -0.6813   -0.9632   -1.4388 H   0  0  0  0  0  0  0  0  0  0  0  0
   -1.8973    0.2579   -2.8971 H   0  0  0  0  0  0  0  0  0  0  0  0
   -1.7804    1.7293   -1.9117 H   0  0  0  0  0  0  0  0  0  0  0  0
   -3.7746   -0.4971   -1.5789 H   0  0  0  0  0  0  0  0  0  0  0  0
   -4.0411    1.3220   -1.5652 H   0  0  0  0  0  0  0  0  0  0  0  0
   -2.4176    3.8760    1.4723 H   0  0  0  0  0  0  0  0  0  0  0  0
   -4.2526    0.3830    1.7333 H   0  0  0  0  0  0  0  0  0  0  0  0
    0.7596    0.0080   -2.4732 H   0  0  0  0  0  0  0  0  0  0  0  0
    0.1434    1.6648   -2.5983 H   0  0  0  0  0  0  0  0  0  0  0  0
    2.6275    1.4995   -2.8714 H   0  0  0  0  0  0  0  0  0  0  0  0
    2.1997    2.4925   -1.3820 H   0  0  0  0  0  0  0  0  0  0  0  0
    4.7362    0.6793   -2.1403 H   0  0  0  0  0  0  0  0  0  0  0  0
    5.3348   -0.2416    1.4844 H   0  0  0  0  0  0  0  0  0  0  0  0
    4.5764   -1.8387    1.3568 H   0  0  0  0  0  0  0  0  0  0  0  0
    2.7210   -0.7034    2.1382 H   0  0  0  0  0  0  0  0  0  0  0  0
    3.3715    0.8644    1.5579 H   0  0  0  0  0  0  0  0  0  0  0  0
    2.0645   -1.2828   -0.1651 H   0  0  0  0  0  0  0  0  0  0  0  0
  1  2  1  0
  2  3  1  0
  3  4  1  0
  4  5  1  0
  5  6  1  0
  6  7  1  0
  7  8  1  0
  3  8  1  0
  8  9  1  0
  9 10  1  0
 10 11  1  0
  3 11  1  0
 11 12  1  0
 12 13  3  0
 11 14  1  0
  7 15  1  0
 15 16  1  0
 16 17  1  0
 17 18  2  0
 18 19  1  0
 19 20  2  0
 19 21  1  0
 21 22  1  0
 22 23  1  0
  6 23  1  0
 17 23  1  0
  1 24  1  0
  1 25  1  0
  1 26  1  0
  2 27  1  0
  2 28  1  0
  4 29  1  0
  4 30  1  0
  5 31  1  0
  5 32  1  0
  6 33  1  0
  7 34  1  0
  8 35  1  0
  9 36  1  0
  9 37  1  0
 10 38  1  0
 10 39  1  0
 13 40  1  0
 14 41  1  0
 15 42  1  0
 15 43  1  0
 16 44  1  0
 16 45  1  0
 18 46  1  0
 21 47  1  0
 21 48  1  0
 22 49  1  0
 22 50  1  0
 23 51  1  0
M  END

