347828450
     RDKit          3D

 31 33  0  0  1  0  0  0  0  0999 V2000
   -2.6835    1.1344    0.4114 C   0  0  0  0  0  0  0  0  0  0  0  0
   -3.9420   -0.8846   -0.3831 C   0  0  0  0  0  0  0  0  0  0  0  0
    3.3446   -1.0745    2.0311 C   0  0  0  0  0  0  0  0  0  0  0  0
    1.0325    0.4284   -1.4533 C   0  0  0  0  0  0  0  0  0  0  0  0
   -2.7127   -0.3549    0.3087 C   0  0  1  0  0  0  0  0  0  0  0  0
   -1.1864    1.4344    0.4201 C   0  0  2  0  0  0  0  0  0  0  0  0
    2.8801   -0.1566   -0.5038 C   0  0  0  0  0  0  0  0  0  0  0  0
    4.1699   -0.4757   -0.1068 C   0  0  0  0  0  0  0  0  0  0  0  0
    1.8576   -0.3150    0.4068 C   0  0  0  0  0  0  0  0  0  0  0  0
   -0.5943    0.0433    0.3920 C   0  0  2  0  0  0  0  0  0  0  0  0
    5.2453   -0.3242   -1.0197 N   0  0  0  0  0  0  0  0  0  0  0  0
    4.3414   -0.9215    1.1476 N   0  0  0  0  0  0  0  0  0  0  0  0
    2.0886   -0.7690    1.6601 N   0  0  0  0  0  0  0  0  0  0  0  0
    2.3551    0.3083   -1.6632 N   0  0  0  0  0  0  0  0  0  0  0  0
    0.7091    0.0590   -0.2141 N   0  0  0  0  0  0  0  0  0  0  0  0
   -5.0400   -0.5210    0.4138 O   0  0  0  0  0  0  0  0  0  0  0  0
   -0.8121    2.0348    1.6066 O   0  0  0  0  0  0  0  0  0  0  0  0
   -1.5405   -0.6436   -0.3739 O   0  0  0  0  0  0  0  0  0  0  0  0
   -3.1742    1.4269    1.3508 H   0  0  0  0  0  0  0  0  0  0  0  0
   -3.1975    1.6596   -0.4160 H   0  0  0  0  0  0  0  0  0  0  0  0
   -4.0603   -0.5380   -1.4115 H   0  0  0  0  0  0  0  0  0  0  0  0
   -3.8552   -1.9917   -0.3998 H   0  0  0  0  0  0  0  0  0  0  0  0
    3.5909   -1.4418    3.0194 H   0  0  0  0  0  0  0  0  0  0  0  0
    0.2950    0.7816   -2.1887 H   0  0  0  0  0  0  0  0  0  0  0  0
   -2.6729   -0.7874    1.3129 H   0  0  0  0  0  0  0  0  0  0  0  0
   -0.8894    2.0243   -0.4672 H   0  0  0  0  0  0  0  0  0  0  0  0
   -0.5600   -0.3901    1.4003 H   0  0  0  0  0  0  0  0  0  0  0  0
    5.9324    0.4505   -0.9532 H   0  0  0  0  0  0  0  0  0  0  0  0
    5.3290   -1.0260   -1.7747 H   0  0  0  0  0  0  0  0  0  0  0  0
   -4.8456   -0.8269    1.3457 H   0  0  0  0  0  0  0  0  0  0  0  0
   -1.4049    1.6567    2.3284 H   0  0  0  0  0  0  0  0  0  0  0  0
  1  5  1  0
  5  2  1  0
  1  6  1  0
  7  8  2  0
  7  9  1  0
  6 10  1  0
  8 11  1  0
  3 12  2  0
  8 12  1  0
  3 13  1  0
  9 13  2  0
  4 14  2  0
  7 14  1  0
  4 15  1  0
  9 15  1  0
 10 15  1  0
  2 16  1  0
  6 17  1  0
  5 18  1  0
 10 18  1  0
  1 19  1  0
  1 20  1  0
  2 21  1  0
  2 22  1  0
  3 23  1  0
  4 24  1  0
  5 25  1  1
  6 26  1  6
 10 27  1  1
 11 28  1  0
 11 29  1  0
 16 30  1  0
 17 31  1  0
M  END

