347828361
     RDKit          3D

 56 58  0  0  1  0  0  0  0  0999 V2000
    2.1590    1.6130    2.5627 C   0  0  0  0  0  0  0  0  0  0  0  0
    2.4979    0.7239    1.3877 C   0  0  1  0  0  0  0  0  0  0  0  0
    1.3373    0.5447    0.4817 C   0  0  0  0  0  0  0  0  0  0  0  0
    1.4975    0.8222   -0.7349 O   0  0  0  0  0  0  0  0  0  0  0  0
    0.0726    0.0721    0.9675 N   0  0  0  0  0  0  0  0  0  0  0  0
   -1.0045   -0.0803    0.0544 C   0  0  1  0  0  0  0  0  0  0  0  0
   -1.4530   -1.5081   -0.0413 C   0  0  0  0  0  0  0  0  0  0  0  0
   -0.7205   -2.3972    0.6836 C   0  0  0  0  0  0  0  0  0  0  0  0
   -1.0521   -3.7364    0.7030 C   0  0  0  0  0  0  0  0  0  0  0  0
   -2.1513   -4.1653   -0.0319 C   0  0  0  0  0  0  0  0  0  0  0  0
   -2.9154   -3.2926   -0.7768 C   0  0  0  0  0  0  0  0  0  0  0  0
   -2.5477   -1.9713   -0.7686 C   0  0  0  0  0  0  0  0  0  0  0  0
   -3.4326   -1.1698   -1.6084 C   0  0  0  0  0  0  0  0  0  0  0  0
   -3.8892   -1.8978   -2.6756 C   0  0  0  0  0  0  0  0  0  0  0  0
   -4.7626   -1.2572   -3.5303 C   0  0  0  0  0  0  0  0  0  0  0  0
   -5.1386    0.0525   -3.2980 C   0  0  0  0  0  0  0  0  0  0  0  0
   -4.6723    0.7480   -2.2410 N   0  0  0  0  0  0  0  0  0  0  0  0
   -3.8293    0.1583   -1.3991 C   0  0  0  0  0  0  0  0  0  0  0  0
   -3.3611    0.9848   -0.3372 N   0  0  0  0  0  0  0  0  0  0  0  0
   -2.1456    0.8217    0.3921 C   0  0  0  0  0  0  0  0  0  0  0  0
   -2.0489    1.5283    1.4318 O   0  0  0  0  0  0  0  0  0  0  0  0
   -4.2393    2.0875   -0.0114 C   0  0  0  0  0  0  0  0  0  0  0  0
   -5.2516    1.7149    1.0474 C   0  0  0  0  0  0  0  0  0  0  0  0
   -6.0417    2.8563    1.2781 O   0  0  0  0  0  0  0  0  0  0  0  0
    3.6394    1.2090    0.6561 N   0  0  0  0  0  0  0  0  0  0  0  0
    4.8241    0.4483    0.5219 C   0  0  0  0  0  0  0  0  0  0  0  0
    4.8664   -0.6917    1.0674 O   0  0  0  0  0  0  0  0  0  0  0  0
    5.9687    0.9966   -0.2423 C   0  0  0  0  0  0  0  0  0  0  0  0
    7.1238    0.0143   -0.2499 C   0  0  0  0  0  0  0  0  0  0  0  0
    8.2461    0.6653   -1.0551 C   0  0  0  0  0  0  0  0  0  0  0  0
    9.3321   -0.1705   -1.1050 F   0  0  0  0  0  0  0  0  0  0  0  0
    8.5486    1.8649   -0.4243 F   0  0  0  0  0  0  0  0  0  0  0  0
    7.7689    0.8951   -2.3200 F   0  0  0  0  0  0  0  0  0  0  0  0
    3.1016    1.8781    3.0836 H   0  0  0  0  0  0  0  0  0  0  0  0
    1.6592    2.5246    2.1448 H   0  0  0  0  0  0  0  0  0  0  0  0
    1.4857    1.0778    3.2456 H   0  0  0  0  0  0  0  0  0  0  0  0
    2.7536   -0.2952    1.7718 H   0  0  0  0  0  0  0  0  0  0  0  0
    0.0077   -0.1408    1.9957 H   0  0  0  0  0  0  0  0  0  0  0  0
   -0.6885    0.2065   -0.9682 H   0  0  0  0  0  0  0  0  0  0  0  0
    0.1287   -2.0297    1.2444 H   0  0  0  0  0  0  0  0  0  0  0  0
   -0.4297   -4.3891    1.2976 H   0  0  0  0  0  0  0  0  0  0  0  0
   -2.3737   -5.2222    0.0132 H   0  0  0  0  0  0  0  0  0  0  0  0
   -3.7735   -3.6189   -1.3074 H   0  0  0  0  0  0  0  0  0  0  0  0
   -3.5504   -2.8886   -2.8386 H   0  0  0  0  0  0  0  0  0  0  0  0
   -5.1766   -1.7490   -4.3973 H   0  0  0  0  0  0  0  0  0  0  0  0
   -5.8277    0.5908   -3.9521 H   0  0  0  0  0  0  0  0  0  0  0  0
   -4.7111    2.5157   -0.9097 H   0  0  0  0  0  0  0  0  0  0  0  0
   -3.5953    2.8850    0.4273 H   0  0  0  0  0  0  0  0  0  0  0  0
   -4.7700    1.4861    2.0188 H   0  0  0  0  0  0  0  0  0  0  0  0
   -5.8699    0.8457    0.7747 H   0  0  0  0  0  0  0  0  0  0  0  0
   -5.4567    3.6387    1.1397 H   0  0  0  0  0  0  0  0  0  0  0  0
    3.6009    2.1537    0.2054 H   0  0  0  0  0  0  0  0  0  0  0  0
    6.2929    1.9780    0.1147 H   0  0  0  0  0  0  0  0  0  0  0  0
    5.6364    1.1345   -1.2982 H   0  0  0  0  0  0  0  0  0  0  0  0
    6.8224   -0.9463   -0.6910 H   0  0  0  0  0  0  0  0  0  0  0  0
    7.5090   -0.1189    0.7860 H   0  0  0  0  0  0  0  0  0  0  0  0
  2  1  1  0
  2  3  1  0
  3  4  2  0
  3  5  1  0
  6  5  1  0
  6  7  1  0
  7  8  2  0
  8  9  1  0
  9 10  2  0
 10 11  1  0
 11 12  2  0
  7 12  1  0
 12 13  1  0
 13 14  2  0
 14 15  1  0
 15 16  2  0
 16 17  1  0
 17 18  2  0
 13 18  1  0
 18 19  1  0
 19 20  1  0
  6 20  1  0
 20 21  2  0
 19 22  1  0
 22 23  1  0
 23 24  1  0
  2 25  1  0
 25 26  1  0
 26 27  2  0
 26 28  1  0
 28 29  1  0
 29 30  1  0
 30 31  1  0
 30 32  1  0
 30 33  1  0
  1 34  1  0
  1 35  1  0
  1 36  1  0
  2 37  1  1
  5 38  1  0
  6 39  1  6
  8 40  1  0
  9 41  1  0
 10 42  1  0
 11 43  1  0
 14 44  1  0
 15 45  1  0
 16 46  1  0
 22 47  1  0
 22 48  1  0
 23 49  1  0
 23 50  1  0
 24 51  1  0
 25 52  1  0
 28 53  1  0
 28 54  1  0
 29 55  1  0
 29 56  1  0
M  END

