347828973
     RDKit          3D

 44 47  0  0  1  0  0  0  0  0999 V2000
    7.2471    1.1666   -0.5861 C   0  0  0  0  0  0  0  0  0  0  0  0
    8.6201    1.1483   -0.5177 C   0  0  0  0  0  0  0  0  0  0  0  0
    8.9906   -0.0083   -0.0683 O   0  0  0  0  0  0  0  0  0  0  0  0
    7.9619   -0.7614    0.1672 N   0  0  0  0  0  0  0  0  0  0  0  0
    6.8397   -0.0717   -0.1410 C   0  0  0  0  0  0  0  0  0  0  0  0
    5.4942   -0.4860   -0.0441 N   0  0  0  0  0  0  0  0  0  0  0  0
    4.4152    0.3798   -0.4134 C   0  0  0  0  0  0  0  0  0  0  0  0
    3.1204   -0.3254   -0.2066 C   0  0  1  0  0  0  0  0  0  0  0  0
    1.9127    0.4582   -0.7053 C   0  0  0  0  0  0  0  0  0  0  0  0
    0.9168   -0.5992   -0.6869 N   0  0  0  0  0  0  0  0  0  0  0  0
    1.6341   -1.7717   -1.0496 C   0  0  0  0  0  0  0  0  0  0  0  0
    1.0780   -2.8557   -1.3716 O   0  0  0  0  0  0  0  0  0  0  0  0
    3.0124   -1.5110   -0.9860 O   0  0  0  0  0  0  0  0  0  0  0  0
   -0.4540   -0.4156   -0.3637 C   0  0  0  0  0  0  0  0  0  0  0  0
   -0.9201   -0.3373    0.9207 C   0  0  0  0  0  0  0  0  0  0  0  0
   -2.2570   -0.1575    1.2596 C   0  0  0  0  0  0  0  0  0  0  0  0
   -3.1862   -0.0479    0.2531 C   0  0  0  0  0  0  0  0  0  0  0  0
   -2.7359   -0.1244   -1.0645 C   0  0  0  0  0  0  0  0  0  0  0  0
   -1.3908   -0.3058   -1.3617 C   0  0  0  0  0  0  0  0  0  0  0  0
   -1.0236   -0.3715   -2.6621 F   0  0  0  0  0  0  0  0  0  0  0  0
   -3.6178    0.0028   -2.0714 F   0  0  0  0  0  0  0  0  0  0  0  0
   -4.5742    0.2031    0.5643 N   0  0  0  0  0  0  0  0  0  0  0  0
   -5.5840    0.1439   -0.4646 C   0  0  0  0  0  0  0  0  0  0  0  0
   -6.9860   -0.1215    0.0430 C   0  0  0  0  0  0  0  0  0  0  0  0
   -7.0054   -0.4591    1.4951 C   0  0  0  0  0  0  0  0  0  0  0  0
   -7.7593   -1.3443    1.9101 O   0  0  0  0  0  0  0  0  0  0  0  0
   -6.1281    0.2672    2.4153 C   0  0  0  0  0  0  0  0  0  0  0  0
   -4.9271    0.5701    1.8842 C   0  0  0  0  0  0  0  0  0  0  0  0
   -2.6218   -0.1252    2.5660 F   0  0  0  0  0  0  0  0  0  0  0  0
    6.6110    1.9812   -0.9193 H   0  0  0  0  0  0  0  0  0  0  0  0
    9.2258    2.0057   -0.8111 H   0  0  0  0  0  0  0  0  0  0  0  0
    5.3090   -1.4440    0.3053 H   0  0  0  0  0  0  0  0  0  0  0  0
    4.4425    1.2530    0.2698 H   0  0  0  0  0  0  0  0  0  0  0  0
    4.4988    0.7488   -1.4583 H   0  0  0  0  0  0  0  0  0  0  0  0
    2.9531   -0.5185    0.8751 H   0  0  0  0  0  0  0  0  0  0  0  0
    1.6719    1.3044   -0.0532 H   0  0  0  0  0  0  0  0  0  0  0  0
    2.1151    0.7511   -1.7525 H   0  0  0  0  0  0  0  0  0  0  0  0
   -0.1996   -0.4206    1.7297 H   0  0  0  0  0  0  0  0  0  0  0  0
   -5.5501    1.0585   -1.0671 H   0  0  0  0  0  0  0  0  0  0  0  0
   -5.3799   -0.7393   -1.1524 H   0  0  0  0  0  0  0  0  0  0  0  0
   -7.5439   -0.8675   -0.5413 H   0  0  0  0  0  0  0  0  0  0  0  0
   -7.5593    0.8382   -0.0629 H   0  0  0  0  0  0  0  0  0  0  0  0
   -6.3989    0.5330    3.4069 H   0  0  0  0  0  0  0  0  0  0  0  0
   -4.2672    1.1406    2.5172 H   0  0  0  0  0  0  0  0  0  0  0  0
  1  2  2  0
  2  3  1  0
  3  4  1  0
  4  5  2  0
  1  5  1  0
  5  6  1  0
  6  7  1  0
  8  7  1  0
  8  9  1  0
  9 10  1  0
 10 11  1  0
 11 12  2  0
 11 13  1  0
  8 13  1  0
 10 14  1  0
 14 15  2  0
 15 16  1  0
 16 17  2  0
 17 18  1  0
 18 19  2  0
 14 19  1  0
 19 20  1  0
 18 21  1  0
 17 22  1  0
 22 23  1  0
 23 24  1  0
 24 25  1  0
 25 26  2  0
 25 27  1  0
 27 28  2  0
 22 28  1  0
 16 29  1  0
  1 30  1  0
  2 31  1  0
  6 32  1  0
  7 33  1  0
  7 34  1  0
  8 35  1  1
  9 36  1  0
  9 37  1  0
 15 38  1  0
 23 39  1  0
 23 40  1  0
 24 41  1  0
 24 42  1  0
 27 43  1  0
 28 44  1  0
M  END

