347827936
     RDKit          3D

 71 75  0  0  0  0  0  0  0  0999 V2000
    1.3753   -4.0455   -1.1706 C   0  0  0  0  0  0  0  0  0  0  0  0
    1.3250   -3.0081   -2.1180 C   0  0  0  0  0  0  0  0  0  0  0  0
    0.9081   -1.7432   -1.7224 C   0  0  0  0  0  0  0  0  0  0  0  0
    0.5471   -1.4734   -0.4259 C   0  0  0  0  0  0  0  0  0  0  0  0
    0.5934   -2.4976    0.5197 C   0  0  0  0  0  0  0  0  0  0  0  0
    1.0107   -3.7707    0.1213 C   0  0  0  0  0  0  0  0  0  0  0  0
    0.1324   -1.9537    1.7764 C   0  0  0  0  0  0  0  0  0  0  0  0
    0.0440   -2.6173    2.8416 O   0  0  0  0  0  0  0  0  0  0  0  0
   -0.1690   -0.6396    1.5855 O   0  0  0  0  0  0  0  0  0  0  0  0
    0.0928   -0.2267    0.2163 C   0  0  0  0  0  0  0  0  0  0  0  0
    1.1646    0.7996    0.3826 C   0  0  0  0  0  0  0  0  0  0  0  0
    2.4390    0.4580    0.8031 C   0  0  0  0  0  0  0  0  0  0  0  0
    3.4175    1.3685    1.0903 C   0  0  0  0  0  0  0  0  0  0  0  0
    3.1729    2.6962    0.9706 C   0  0  0  0  0  0  0  0  0  0  0  0
    1.8997    3.1039    0.5354 C   0  0  0  0  0  0  0  0  0  0  0  0
    0.9205    2.1497    0.2461 C   0  0  0  0  0  0  0  0  0  0  0  0
   -0.3184    2.5920   -0.1854 O   0  0  0  0  0  0  0  0  0  0  0  0
   -1.3303    1.6916   -0.4557 C   0  0  0  0  0  0  0  0  0  0  0  0
   -1.1727    0.3474   -0.2812 C   0  0  0  0  0  0  0  0  0  0  0  0
   -2.2475   -0.5194   -0.5543 C   0  0  0  0  0  0  0  0  0  0  0  0
   -3.4370   -0.0035   -1.0026 C   0  0  0  0  0  0  0  0  0  0  0  0
   -3.6156    1.3618   -1.2042 C   0  0  0  0  0  0  0  0  0  0  0  0
   -2.5396    2.2140   -0.9183 C   0  0  0  0  0  0  0  0  0  0  0  0
   -4.7622    1.8989   -1.6649 O   0  0  0  0  0  0  0  0  0  0  0  0
   -4.6788   -0.8655   -1.0930 C   0  0  0  0  0  0  0  0  0  0  0  0
   -5.7805   -0.1257   -0.5148 N   0  0  0  0  0  0  0  0  0  0  0  0
   -6.9791   -0.8766   -0.4783 C   0  0  0  0  0  0  0  0  0  0  0  0
   -7.0860   -1.8973    0.6099 C   0  0  0  0  0  0  0  0  0  0  0  0
   -6.1173   -2.4548    1.1404 O   0  0  0  0  0  0  0  0  0  0  0  0
   -8.3653   -2.2313    1.0389 O   0  0  0  0  0  0  0  0  0  0  0  0
   -5.4791    0.4875    0.7599 C   0  0  0  0  0  0  0  0  0  0  0  0
   -6.5632    1.4433    1.1640 C   0  0  0  0  0  0  0  0  0  0  0  0
   -7.5892    1.6092    0.4733 O   0  0  0  0  0  0  0  0  0  0  0  0
   -6.4163    2.1634    2.3345 O   0  0  0  0  0  0  0  0  0  0  0  0
    4.0842    3.7300    1.2487 O   0  0  0  0  0  0  0  0  0  0  0  0
    4.7835    0.8795    1.5465 C   0  0  0  0  0  0  0  0  0  0  0  0
    5.2654    0.0470    0.5093 N   0  0  0  0  0  0  0  0  0  0  0  0
    6.1767   -0.9456    0.4881 C   0  0  0  0  0  0  0  0  0  0  0  0
    7.5675   -0.6660    0.8361 C   0  0  0  0  0  0  0  0  0  0  0  0
    7.7084    0.2347    1.7638 O   0  0  0  0  0  0  0  0  0  0  0  0
    8.6179   -1.2762    0.2702 O   0  0  0  0  0  0  0  0  0  0  0  0
    4.9461    0.6888   -0.7888 C   0  0  0  0  0  0  0  0  0  0  0  0
    5.6561    1.9672   -0.9036 C   0  0  0  0  0  0  0  0  0  0  0  0
    6.6439    2.3047   -0.2239 O   0  0  0  0  0  0  0  0  0  0  0  0
    5.2411    2.9315   -1.8484 O   0  0  0  0  0  0  0  0  0  0  0  0
    1.6964   -5.0192   -1.4709 H   0  0  0  0  0  0  0  0  0  0  0  0
    1.5999   -3.1883   -3.1503 H   0  0  0  0  0  0  0  0  0  0  0  0
    0.8489   -0.9185   -2.4612 H   0  0  0  0  0  0  0  0  0  0  0  0
    1.0361   -4.5469    0.8635 H   0  0  0  0  0  0  0  0  0  0  0  0
    2.6822   -0.6266    0.9291 H   0  0  0  0  0  0  0  0  0  0  0  0
    1.6409    4.1228    0.4193 H   0  0  0  0  0  0  0  0  0  0  0  0
   -2.1333   -1.5983   -0.4103 H   0  0  0  0  0  0  0  0  0  0  0  0
   -2.6235    3.2879   -1.0589 H   0  0  0  0  0  0  0  0  0  0  0  0
   -5.5946    1.4956   -1.9624 H   0  0  0  0  0  0  0  0  0  0  0  0
   -4.8957   -1.1490   -2.1171 H   0  0  0  0  0  0  0  0  0  0  0  0
   -4.5035   -1.7608   -0.4814 H   0  0  0  0  0  0  0  0  0  0  0  0
   -7.8998   -0.3323   -0.6651 H   0  0  0  0  0  0  0  0  0  0  0  0
   -6.8980   -1.5652   -1.4257 H   0  0  0  0  0  0  0  0  0  0  0  0
   -8.8101   -1.5297    1.6492 H   0  0  0  0  0  0  0  0  0  0  0  0
   -4.5515    1.0309    0.8738 H   0  0  0  0  0  0  0  0  0  0  0  0
   -5.4349   -0.3440    1.5151 H   0  0  0  0  0  0  0  0  0  0  0  0
   -7.1561    2.7454    2.7278 H   0  0  0  0  0  0  0  0  0  0  0  0
    5.0167    3.5864    1.5728 H   0  0  0  0  0  0  0  0  0  0  0  0
    5.3659    1.6937    1.9324 H   0  0  0  0  0  0  0  0  0  0  0  0
    4.5522    0.1797    2.4164 H   0  0  0  0  0  0  0  0  0  0  0  0
    6.2618   -1.3152   -0.6398 H   0  0  0  0  0  0  0  0  0  0  0  0
    5.8423   -1.9333    0.9584 H   0  0  0  0  0  0  0  0  0  0  0  0
    8.5524   -2.2784    0.0698 H   0  0  0  0  0  0  0  0  0  0  0  0
    5.3526    0.0036   -1.6064 H   0  0  0  0  0  0  0  0  0  0  0  0
    3.8603    0.7296   -0.9805 H   0  0  0  0  0  0  0  0  0  0  0  0
    5.1057    3.8992   -1.5216 H   0  0  0  0  0  0  0  0  0  0  0  0
  1  2  2  0
  2  3  1  0
  3  4  2  0
  4  5  1  0
  5  6  2  0
  1  6  1  0
  5  7  1  0
  7  8  2  0
  7  9  1  0
  9 10  1  0
  4 10  1  0
 10 11  1  0
 11 12  2  0
 12 13  1  0
 13 14  2  0
 14 15  1  0
 15 16  2  0
 11 16  1  0
 16 17  1  0
 17 18  1  0
 18 19  2  0
 10 19  1  0
 19 20  1  0
 20 21  2  0
 21 22  1  0
 22 23  2  0
 18 23  1  0
 22 24  1  0
 21 25  1  0
 25 26  1  0
 26 27  1  0
 27 28  1  0
 28 29  2  0
 28 30  1  0
 26 31  1  0
 31 32  1  0
 32 33  2  0
 32 34  1  0
 14 35  1  0
 13 36  1  0
 36 37  1  0
 37 38  1  0
 38 39  1  0
 39 40  2  0
 39 41  1  0
 37 42  1  0
 42 43  1  0
 43 44  2  0
 43 45  1  0
  1 46  1  0
  2 47  1  0
  3 48  1  0
  6 49  1  0
 12 50  1  0
 15 51  1  0
 20 52  1  0
 23 53  1  0
 24 54  1  0
 25 55  1  0
 25 56  1  0
 27 57  1  0
 27 58  1  0
 30 59  1  0
 31 60  1  0
 31 61  1  0
 34 62  1  0
 35 63  1  0
 36 64  1  0
 36 65  1  0
 38 66  1  0
 38 67  1  0
 41 68  1  0
 42 69  1  0
 42 70  1  0
 45 71  1  0
M  END

