347828933
     RDKit          3D

 67 71  0  0  0  0  0  0  0  0999 V2000
   -5.2219    2.7698   -2.4896 C   0  0  0  0  0  0  0  0  0  0  0  0
   -5.2640    1.3948   -2.5854 C   0  0  0  0  0  0  0  0  0  0  0  0
   -4.9139    0.5987   -1.5002 C   0  0  0  0  0  0  0  0  0  0  0  0
   -4.5154    1.1480   -0.3005 C   0  0  0  0  0  0  0  0  0  0  0  0
   -4.4711    2.5226   -0.1972 C   0  0  0  0  0  0  0  0  0  0  0  0
   -4.8208    3.3038   -1.2802 C   0  0  0  0  0  0  0  0  0  0  0  0
   -4.1185    0.3401    0.8821 C   0  0  0  0  0  0  0  0  0  0  0  0
   -2.6428    0.3738    1.0274 C   0  0  0  0  0  0  0  0  0  0  0  0
   -1.8548   -0.1224   -0.0975 C   0  0  0  0  0  0  0  0  0  0  0  0
   -2.3046   -0.5313   -1.2024 O   0  0  0  0  0  0  0  0  0  0  0  0
   -0.4313   -0.1646    0.0268 N   0  0  0  0  0  0  0  0  0  0  0  0
    0.4323   -0.6405   -1.0275 C   0  0  0  0  0  0  0  0  0  0  0  0
    1.6605   -1.2608   -0.3733 C   0  0  0  0  0  0  0  0  0  0  0  0
    2.4164   -0.2788    0.3669 N   0  0  0  0  0  0  0  0  0  0  0  0
    1.5964    0.7701    0.8961 C   0  0  0  0  0  0  0  0  0  0  0  0
    0.1904    0.2783    1.2362 C   0  0  0  0  0  0  0  0  0  0  0  0
    3.5315    0.2415   -0.3865 C   0  0  0  0  0  0  0  0  0  0  0  0
    4.2649    1.2420    0.4216 C   0  0  0  0  0  0  0  0  0  0  0  0
    4.5538    1.0185    1.7406 C   0  0  0  0  0  0  0  0  0  0  0  0
    5.2470    1.9524    2.5190 C   0  0  0  0  0  0  0  0  0  0  0  0
    5.6625    3.1431    1.9610 C   0  0  0  0  0  0  0  0  0  0  0  0
    5.3713    3.3681    0.6318 C   0  0  0  0  0  0  0  0  0  0  0  0
    4.6881    2.4471   -0.1339 C   0  0  0  0  0  0  0  0  0  0  0  0
    4.4037   -0.8572   -0.8692 C   0  0  0  0  0  0  0  0  0  0  0  0
    4.7857   -1.9232   -0.0788 C   0  0  0  0  0  0  0  0  0  0  0  0
    5.5994   -2.9306   -0.5590 C   0  0  0  0  0  0  0  0  0  0  0  0
    6.0696   -2.9181   -1.8553 C   0  0  0  0  0  0  0  0  0  0  0  0
    5.6944   -1.8581   -2.6539 C   0  0  0  0  0  0  0  0  0  0  0  0
    4.8825   -0.8530   -2.1744 C   0  0  0  0  0  0  0  0  0  0  0  0
   -4.7571   -0.9782    0.9114 C   0  0  0  0  0  0  0  0  0  0  0  0
   -4.0484   -2.1385    0.8748 C   0  0  0  0  0  0  0  0  0  0  0  0
   -4.7002   -3.3780    0.8912 C   0  0  0  0  0  0  0  0  0  0  0  0
   -6.0867   -3.4229    0.9460 C   0  0  0  0  0  0  0  0  0  0  0  0
   -6.7995   -2.2497    0.9834 C   0  0  0  0  0  0  0  0  0  0  0  0
   -6.1283   -1.0488    0.9658 C   0  0  0  0  0  0  0  0  0  0  0  0
   -5.4910    3.4235   -3.3256 H   0  0  0  0  0  0  0  0  0  0  0  0
   -5.5725    0.9528   -3.5148 H   0  0  0  0  0  0  0  0  0  0  0  0
   -4.9718   -0.4748   -1.6215 H   0  0  0  0  0  0  0  0  0  0  0  0
   -4.1555    2.9600    0.7535 H   0  0  0  0  0  0  0  0  0  0  0  0
   -4.7849    4.3956   -1.1969 H   0  0  0  0  0  0  0  0  0  0  0  0
   -4.5548    0.8798    1.8019 H   0  0  0  0  0  0  0  0  0  0  0  0
   -2.3604    1.4620    1.1580 H   0  0  0  0  0  0  0  0  0  0  0  0
   -2.3031   -0.0968    1.9798 H   0  0  0  0  0  0  0  0  0  0  0  0
   -0.0889   -1.4766   -1.5559 H   0  0  0  0  0  0  0  0  0  0  0  0
    0.7634    0.1367   -1.7145 H   0  0  0  0  0  0  0  0  0  0  0  0
    2.2190   -1.7787   -1.1498 H   0  0  0  0  0  0  0  0  0  0  0  0
    1.2668   -2.0143    0.3430 H   0  0  0  0  0  0  0  0  0  0  0  0
    1.4876    1.6409    0.2061 H   0  0  0  0  0  0  0  0  0  0  0  0
    2.0397    1.1037    1.8589 H   0  0  0  0  0  0  0  0  0  0  0  0
    0.2915   -0.4864    2.0154 H   0  0  0  0  0  0  0  0  0  0  0  0
   -0.3265    1.1588    1.6949 H   0  0  0  0  0  0  0  0  0  0  0  0
    3.0851    0.7149   -1.2967 H   0  0  0  0  0  0  0  0  0  0  0  0
    4.2419    0.1026    2.2007 H   0  0  0  0  0  0  0  0  0  0  0  0
    5.4594    1.7383    3.5692 H   0  0  0  0  0  0  0  0  0  0  0  0
    6.2015    3.8613    2.5798 H   0  0  0  0  0  0  0  0  0  0  0  0
    5.7014    4.3036    0.2057 H   0  0  0  0  0  0  0  0  0  0  0  0
    4.4531    2.6153   -1.1850 H   0  0  0  0  0  0  0  0  0  0  0  0
    4.4082   -1.9248    0.9439 H   0  0  0  0  0  0  0  0  0  0  0  0
    5.8755   -3.7461    0.0893 H   0  0  0  0  0  0  0  0  0  0  0  0
    6.7100   -3.7014   -2.2505 H   0  0  0  0  0  0  0  0  0  0  0  0
    6.0657   -1.8422   -3.6874 H   0  0  0  0  0  0  0  0  0  0  0  0
    4.5993   -0.0242   -2.8268 H   0  0  0  0  0  0  0  0  0  0  0  0
   -2.9887   -2.1356    0.8421 H   0  0  0  0  0  0  0  0  0  0  0  0
   -4.0874   -4.2732    0.8598 H   0  0  0  0  0  0  0  0  0  0  0  0
   -6.5890   -4.3879    0.9582 H   0  0  0  0  0  0  0  0  0  0  0  0
   -7.8733   -2.3107    1.0255 H   0  0  0  0  0  0  0  0  0  0  0  0
   -6.6927   -0.1340    0.9952 H   0  0  0  0  0  0  0  0  0  0  0  0
  1  2  2  0
  2  3  1  0
  3  4  2  0
  4  5  1  0
  5  6  2  0
  1  6  1  0
  4  7  1  0
  7  8  1  0
  8  9  1  0
  9 10  2  0
  9 11  1  0
 11 12  1  0
 12 13  1  0
 13 14  1  0
 14 15  1  0
 15 16  1  0
 11 16  1  0
 14 17  1  0
 17 18  1  0
 18 19  2  0
 19 20  1  0
 20 21  2  0
 21 22  1  0
 22 23  2  0
 18 23  1  0
 17 24  1  0
 24 25  2  0
 25 26  1  0
 26 27  2  0
 27 28  1  0
 28 29  2  0
 24 29  1  0
  7 30  1  0
 30 31  2  0
 31 32  1  0
 32 33  2  0
 33 34  1  0
 34 35  2  0
 30 35  1  0
  1 36  1  0
  2 37  1  0
  3 38  1  0
  5 39  1  0
  6 40  1  0
  7 41  1  0
  8 42  1  0
  8 43  1  0
 12 44  1  0
 12 45  1  0
 13 46  1  0
 13 47  1  0
 15 48  1  0
 15 49  1  0
 16 50  1  0
 16 51  1  0
 17 52  1  0
 19 53  1  0
 20 54  1  0
 21 55  1  0
 22 56  1  0
 23 57  1  0
 25 58  1  0
 26 59  1  0
 27 60  1  0
 28 61  1  0
 29 62  1  0
 31 63  1  0
 32 64  1  0
 33 65  1  0
 34 66  1  0
 35 67  1  0
M  END

