347827869
     RDKit          3D

  8  7  0  0  0  0  0  0  0  0999 V2000
    0.0009   -0.2199    0.4987 C   0  0  0  0  0  0  0  0  0  0  0  0
   -1.2042    0.1509   -0.1573 N   0  0  0  0  0  0  0  0  0  0  0  0
    0.0479   -0.7250    1.6444 O   0  0  0  0  0  0  0  0  0  0  0  0
    1.2001    0.0246   -0.2493 N   0  0  0  0  0  0  0  0  0  0  0  0
   -1.6745   -0.5451   -0.7557 H   0  0  0  0  0  0  0  0  0  0  0  0
   -1.5443    1.1241    0.0113 H   0  0  0  0  0  0  0  0  0  0  0  0
    1.7081    0.9065   -0.0765 H   0  0  0  0  0  0  0  0  0  0  0  0
    1.4660   -0.7161   -0.9155 H   0  0  0  0  0  0  0  0  0  0  0  0
  1  4  1  0
  1  3  2  0
  1  2  1  0
  2  5  1  0
  2  6  1  0
  4  7  1  0
  4  8  1  0
M  ISO  1   1  13
M  END

