347828299
     RDKit          3D

 83 88  0  0  0  0  0  0  0  0999 V2000
  -11.7501    0.8726   -0.1436 C   0  0  0  0  0  0  0  0  0  0  0  0
  -10.3320    0.9677   -0.2536 N   0  0  0  0  0  0  0  0  0  0  0  0
   -9.6683    1.7356    0.7367 C   0  0  0  0  0  0  0  0  0  0  0  0
   -9.0881    0.8712    1.8293 C   0  0  0  0  0  0  0  0  0  0  0  0
   -8.2829   -0.1520    1.2914 N   0  0  0  0  0  0  0  0  0  0  0  0
   -8.8595   -0.9314    0.2711 C   0  0  0  0  0  0  0  0  0  0  0  0
   -9.6752   -0.1945   -0.7315 C   0  0  0  0  0  0  0  0  0  0  0  0
   -6.8921   -0.0983    1.4326 C   0  0  0  0  0  0  0  0  0  0  0  0
   -6.1831    1.0673    0.7957 C   0  0  0  0  0  0  0  0  0  0  0  0
   -4.6975    0.6233    0.6404 C   0  0  0  0  0  0  0  0  0  0  0  0
   -4.1996    0.1634    1.9001 N   0  0  0  0  0  0  0  0  0  0  0  0
   -5.1085    0.5204    3.0372 C   0  0  0  0  0  0  0  0  0  0  0  0
   -6.4045   -0.2001    2.8455 C   0  0  0  0  0  0  0  0  0  0  0  0
   -3.0528   -0.5193    2.2454 C   0  0  0  0  0  0  0  0  0  0  0  0
   -2.9929   -0.8150    3.5441 O   0  0  0  0  0  0  0  0  0  0  0  0
   -1.9473   -0.9658    1.5337 N   0  0  0  0  0  0  0  0  0  0  0  0
   -1.5468   -0.8291    0.1922 C   0  0  0  0  0  0  0  0  0  0  0  0
   -0.3841   -1.5063   -0.2149 C   0  0  0  0  0  0  0  0  0  0  0  0
    0.0848   -1.3985   -1.4978 C   0  0  0  0  0  0  0  0  0  0  0  0
   -0.6236   -0.6015   -2.3782 C   0  0  0  0  0  0  0  0  0  0  0  0
   -1.7703    0.0577   -1.9519 C   0  0  0  0  0  0  0  0  0  0  0  0
   -2.1946   -0.0690   -0.7052 N   0  0  0  0  0  0  0  0  0  0  0  0
    1.2421   -2.0660   -1.9241 O   0  0  0  0  0  0  0  0  0  0  0  0
    2.4855   -1.4667   -1.8153 C   0  0  0  0  0  0  0  0  0  0  0  0
    2.9630   -0.6978   -2.8434 C   0  0  0  0  0  0  0  0  0  0  0  0
    4.2148   -0.0748   -2.7743 C   0  0  0  0  0  0  0  0  0  0  0  0
    5.0253   -0.1987   -1.6808 C   0  0  0  0  0  0  0  0  0  0  0  0
    4.5273   -0.9904   -0.6285 C   0  0  0  0  0  0  0  0  0  0  0  0
    3.3035   -1.5904   -0.7151 C   0  0  0  0  0  0  0  0  0  0  0  0
    5.2727   -1.1603    0.4814 F   0  0  0  0  0  0  0  0  0  0  0  0
    6.3019    0.4041   -1.5434 N   0  0  0  0  0  0  0  0  0  0  0  0
    6.9719    1.2091   -2.4520 C   0  0  0  0  0  0  0  0  0  0  0  0
    6.4107    1.5076   -3.5566 O   0  0  0  0  0  0  0  0  0  0  0  0
    8.3183    1.7913   -2.2658 C   0  0  0  0  0  0  0  0  0  0  0  0
    8.4590    3.2686   -2.5110 C   0  0  0  0  0  0  0  0  0  0  0  0
    8.9622    2.3069   -3.5416 C   0  0  0  0  0  0  0  0  0  0  0  0
    9.2193    1.1499   -1.2861 C   0  0  0  0  0  0  0  0  0  0  0  0
   10.1471    1.8907   -0.8298 O   0  0  0  0  0  0  0  0  0  0  0  0
    9.1024   -0.1736   -0.8718 N   0  0  0  0  0  0  0  0  0  0  0  0
    9.9084   -0.8489    0.0803 C   0  0  0  0  0  0  0  0  0  0  0  0
    9.6434   -2.1933    0.3632 C   0  0  0  0  0  0  0  0  0  0  0  0
   10.3775   -2.9093    1.2726 C   0  0  0  0  0  0  0  0  0  0  0  0
   11.4202   -2.3404    1.9594 C   0  0  0  0  0  0  0  0  0  0  0  0
   11.7009   -1.0258    1.7016 C   0  0  0  0  0  0  0  0  0  0  0  0
   10.9446   -0.2918    0.7660 C   0  0  0  0  0  0  0  0  0  0  0  0
   12.1609   -3.0251    2.8628 F   0  0  0  0  0  0  0  0  0  0  0  0
  -12.1340    1.8379    0.2543 H   0  0  0  0  0  0  0  0  0  0  0  0
  -12.1572    0.8195   -1.1956 H   0  0  0  0  0  0  0  0  0  0  0  0
  -12.1209   -0.0101    0.4100 H   0  0  0  0  0  0  0  0  0  0  0  0
  -10.4084    2.4146    1.2147 H   0  0  0  0  0  0  0  0  0  0  0  0
   -8.9053    2.3652    0.2375 H   0  0  0  0  0  0  0  0  0  0  0  0
   -8.5977    1.4507    2.6050 H   0  0  0  0  0  0  0  0  0  0  0  0
   -9.9816    0.3800    2.3232 H   0  0  0  0  0  0  0  0  0  0  0  0
   -8.0938   -1.5326   -0.2629 H   0  0  0  0  0  0  0  0  0  0  0  0
   -9.5315   -1.6947    0.7646 H   0  0  0  0  0  0  0  0  0  0  0  0
   -9.1050    0.0822   -1.6507 H   0  0  0  0  0  0  0  0  0  0  0  0
  -10.4720   -0.9007   -1.1136 H   0  0  0  0  0  0  0  0  0  0  0  0
   -6.4743   -1.0085    0.8924 H   0  0  0  0  0  0  0  0  0  0  0  0
   -6.5091    1.2692   -0.2352 H   0  0  0  0  0  0  0  0  0  0  0  0
   -6.2295    2.0053    1.3553 H   0  0  0  0  0  0  0  0  0  0  0  0
   -4.1299    1.4661    0.2663 H   0  0  0  0  0  0  0  0  0  0  0  0
   -4.6904   -0.2097   -0.1054 H   0  0  0  0  0  0  0  0  0  0  0  0
   -4.6439    0.2378    4.0059 H   0  0  0  0  0  0  0  0  0  0  0  0
   -5.1818    1.6177    3.0045 H   0  0  0  0  0  0  0  0  0  0  0  0
   -6.2359   -1.2762    3.0828 H   0  0  0  0  0  0  0  0  0  0  0  0
   -7.1189    0.2173    3.5855 H   0  0  0  0  0  0  0  0  0  0  0  0
   -1.2102   -1.4947    2.1406 H   0  0  0  0  0  0  0  0  0  0  0  0
    0.1380   -2.1155    0.4916 H   0  0  0  0  0  0  0  0  0  0  0  0
   -0.2531   -0.5211   -3.3804 H   0  0  0  0  0  0  0  0  0  0  0  0
   -2.3245    0.6802   -2.6321 H   0  0  0  0  0  0  0  0  0  0  0  0
    2.3759   -0.5625   -3.7265 H   0  0  0  0  0  0  0  0  0  0  0  0
    4.5320    0.5128   -3.6120 H   0  0  0  0  0  0  0  0  0  0  0  0
    2.9013   -2.2092    0.0969 H   0  0  0  0  0  0  0  0  0  0  0  0
    6.7647    0.2624   -0.5929 H   0  0  0  0  0  0  0  0  0  0  0  0
    7.5455    3.8503   -2.7112 H   0  0  0  0  0  0  0  0  0  0  0  0
    9.2446    3.7719   -1.9007 H   0  0  0  0  0  0  0  0  0  0  0  0
    8.3729    2.2421   -4.4880 H   0  0  0  0  0  0  0  0  0  0  0  0
   10.0470    2.1566   -3.7058 H   0  0  0  0  0  0  0  0  0  0  0  0
    8.3555   -0.7615   -1.3832 H   0  0  0  0  0  0  0  0  0  0  0  0
    8.8171   -2.6653   -0.1721 H   0  0  0  0  0  0  0  0  0  0  0  0
   10.1609   -3.9613    1.4863 H   0  0  0  0  0  0  0  0  0  0  0  0
   12.5167   -0.5277    2.2185 H   0  0  0  0  0  0  0  0  0  0  0  0
   11.2228    0.7384    0.6159 H   0  0  0  0  0  0  0  0  0  0  0  0
  1  2  1  0
  2  3  1  0
  3  4  1  0
  4  5  1  0
  5  6  1  0
  6  7  1  0
  2  7  1  0
  5  8  1  0
  8  9  1  0
  9 10  1  0
 10 11  1  0
 11 12  1  0
 12 13  1  0
  8 13  1  0
 11 14  1  0
 14 15  2  0
 14 16  1  0
 16 17  1  0
 17 18  2  0
 18 19  1  0
 19 20  2  0
 20 21  1  0
 21 22  2  0
 17 22  1  0
 19 23  1  0
 23 24  1  0
 24 25  2  0
 25 26  1  0
 26 27  2  0
 27 28  1  0
 28 29  2  0
 24 29  1  0
 28 30  1  0
 27 31  1  0
 31 32  1  0
 32 33  2  0
 32 34  1  0
 34 35  1  0
 35 36  1  0
 34 36  1  0
 34 37  1  0
 37 38  2  0
 37 39  1  0
 39 40  1  0
 40 41  2  0
 41 42  1  0
 42 43  2  0
 43 44  1  0
 44 45  2  0
 40 45  1  0
 43 46  1  0
  1 47  1  0
  1 48  1  0
  1 49  1  0
  3 50  1  0
  3 51  1  0
  4 52  1  0
  4 53  1  0
  6 54  1  0
  6 55  1  0
  7 56  1  0
  7 57  1  0
  8 58  1  0
  9 59  1  0
  9 60  1  0
 10 61  1  0
 10 62  1  0
 12 63  1  0
 12 64  1  0
 13 65  1  0
 13 66  1  0
 16 67  1  0
 18 68  1  0
 20 69  1  0
 21 70  1  0
 25 71  1  0
 26 72  1  0
 29 73  1  0
 31 74  1  0
 35 75  1  0
 35 76  1  0
 36 77  1  0
 36 78  1  0
 39 79  1  0
 41 80  1  0
 42 81  1  0
 44 82  1  0
 45 83  1  0
M  END

