347828686
     RDKit          3D

 37 38  0  0  0  0  0  0  0  0999 V2000
   -3.0790    2.6089    2.0184 C   0  0  0  0  0  0  0  0  0  0  0  0
   -3.2654    1.6480    0.9058 C   0  0  0  0  0  0  0  0  0  0  0  0
   -3.3252    2.1220   -0.2614 O   0  0  0  0  0  0  0  0  0  0  0  0
   -3.3758    0.2895    1.0639 O   0  0  0  0  0  0  0  0  0  0  0  0
   -3.5490   -0.5470   -0.0298 C   0  0  0  0  0  0  0  0  0  0  0  0
   -4.8331   -0.8667   -0.4858 C   0  0  0  0  0  0  0  0  0  0  0  0
   -4.9785   -1.7000   -1.5745 C   0  0  0  0  0  0  0  0  0  0  0  0
   -3.8455   -2.2056   -2.1968 C   0  0  0  0  0  0  0  0  0  0  0  0
   -2.5744   -1.8751   -1.7271 C   0  0  0  0  0  0  0  0  0  0  0  0
   -2.4240   -1.0452   -0.6429 C   0  0  0  0  0  0  0  0  0  0  0  0
   -1.1140   -0.6775   -0.1236 C   0  0  0  0  0  0  0  0  0  0  0  0
   -0.9941    0.0728    0.8560 O   0  0  0  0  0  0  0  0  0  0  0  0
    0.0719   -1.1503   -0.7016 O   0  0  0  0  0  0  0  0  0  0  0  0
    1.3248   -0.8097   -0.2195 C   0  0  0  0  0  0  0  0  0  0  0  0
    1.8742   -1.6239    0.7473 C   0  0  0  0  0  0  0  0  0  0  0  0
    3.1142   -1.3684    1.2885 C   0  0  0  0  0  0  0  0  0  0  0  0
    3.8365   -0.2760    0.8640 C   0  0  0  0  0  0  0  0  0  0  0  0
    3.2891    0.5394   -0.1026 C   0  0  0  0  0  0  0  0  0  0  0  0
    2.0477    0.2776   -0.6397 C   0  0  0  0  0  0  0  0  0  0  0  0
    4.0889    1.7058   -0.5428 C   0  0  0  0  0  0  0  0  0  0  0  0
    5.3869    1.7209   -0.0305 O   0  0  0  0  0  0  0  0  0  0  0  0
    6.3465    0.7861   -0.2152 N   0  0  0  0  0  4  0  0  0  0  0  0
    7.3176    0.6653    0.5555 O   0  0  0  0  0  0  0  0  0  0  0  0
    6.2779   -0.0765   -1.2807 O   0  0  0  0  0  1  0  0  0  0  0  0
   -3.0358    2.1201    3.0018 H   0  0  0  0  0  0  0  0  0  0  0  0
   -3.9778    3.2930    2.0389 H   0  0  0  0  0  0  0  0  0  0  0  0
   -2.1582    3.2185    1.9044 H   0  0  0  0  0  0  0  0  0  0  0  0
   -5.6947   -0.4546    0.0234 H   0  0  0  0  0  0  0  0  0  0  0  0
   -5.9739   -1.9698   -1.9564 H   0  0  0  0  0  0  0  0  0  0  0  0
   -3.9792   -2.8566   -3.0479 H   0  0  0  0  0  0  0  0  0  0  0  0
   -1.7387   -2.2888   -2.2393 H   0  0  0  0  0  0  0  0  0  0  0  0
    1.3570   -2.5047    1.1286 H   0  0  0  0  0  0  0  0  0  0  0  0
    3.5216   -2.0190    2.0421 H   0  0  0  0  0  0  0  0  0  0  0  0
    4.7993   -0.1242    1.3231 H   0  0  0  0  0  0  0  0  0  0  0  0
    1.6484    0.9417   -1.3990 H   0  0  0  0  0  0  0  0  0  0  0  0
    4.0477    1.8196   -1.6447 H   0  0  0  0  0  0  0  0  0  0  0  0
    3.5660    2.6100   -0.1113 H   0  0  0  0  0  0  0  0  0  0  0  0
  1  2  1  0
  2  3  2  0
  2  4  1  0
  4  5  1  0
  5  6  2  0
  6  7  1  0
  7  8  2  0
  8  9  1  0
  9 10  2  0
  5 10  1  0
 10 11  1  0
 11 12  2  0
 11 13  1  0
 13 14  1  0
 14 15  2  0
 15 16  1  0
 16 17  2  0
 17 18  1  0
 18 19  2  0
 14 19  1  0
 18 20  1  0
 20 21  1  0
 21 22  1  0
 22 23  2  0
 22 24  1  0
  1 25  1  0
  1 26  1  0
  1 27  1  0
  6 28  1  0
  7 29  1  0
  8 30  1  0
  9 31  1  0
 15 32  1  0
 16 33  1  0
 17 34  1  0
 19 35  1  0
 20 36  1  0
 20 37  1  0
M  CHG  2  22   1  24  -1
M  END

