347829066
     RDKit          3D

 83 88  0  0  1  0  0  0  0  0999 V2000
   -3.5915   -0.3704    3.7796 C   0  0  0  0  0  0  0  0  0  0  0  0
   -1.4015    0.3751    4.5504 C   0  0  0  0  0  0  0  0  0  0  0  0
    9.6555   -0.1708   -0.9274 C   0  0  0  0  0  0  0  0  0  0  0  0
    9.3263    0.9205   -3.1076 C   0  0  0  0  0  0  0  0  0  0  0  0
    8.6513   -1.4694   -2.7814 C   0  0  0  0  0  0  0  0  0  0  0  0
    2.2722    0.7579    2.6583 C   0  0  0  0  0  0  0  0  0  0  0  0
    6.4059    0.4098   -2.6720 C   0  0  0  0  0  0  0  0  0  0  0  0
    5.1348    0.7720   -2.3071 C   0  0  0  0  0  0  0  0  0  0  0  0
    2.9414    1.9396    2.0361 C   0  0  0  0  0  0  0  0  0  0  0  0
    0.3593    0.5562    0.9948 C   0  0  0  0  0  0  0  0  0  0  0  0
    0.4621   -0.9402    2.5195 C   0  0  0  0  0  0  0  0  0  0  0  0
    7.0985    0.5781   -0.3843 C   0  0  0  0  0  0  0  0  0  0  0  0
   -2.6271    0.6115    0.9976 C   0  0  0  0  0  0  0  0  0  0  0  0
   -9.9851    0.2173   -0.9695 C   0  0  0  0  0  0  0  0  0  0  0  0
   -6.0245    0.3883   -2.9452 C   0  0  0  0  0  0  0  0  0  0  0  0
   -2.3198    0.3327    3.3602 C   0  0  0  0  0  0  0  0  0  0  0  0
    1.4808   -0.0983    1.7173 C   0  0  2  0  0  0  0  0  0  0  0  0
    7.4067    0.3083   -1.7084 C   0  0  0  0  0  0  0  0  0  0  0  0
   -0.6123   -0.4017    1.7109 C   0  0  1  0  0  0  0  0  0  0  0  0
    4.8335    1.0410   -0.9767 C   0  0  0  0  0  0  0  0  0  0  0  0
    5.8193    0.9446   -0.0046 C   0  0  0  0  0  0  0  0  0  0  0  0
   -3.8549   -0.1103    0.6590 C   0  0  2  0  0  0  0  0  0  0  0  0
    3.9121    1.5500    0.9622 C   0  0  0  0  0  0  0  0  0  0  0  0
   -8.1549    0.5794   -2.9387 C   0  0  0  0  0  0  0  0  0  0  0  0
   -3.6260   -1.4406   -0.0328 C   0  0  2  0  0  0  0  0  0  0  0  0
   -4.9958   -1.6633   -0.6948 C   0  0  2  0  0  0  0  0  0  0  0  0
   -9.5032    0.7682   -3.1882 C   0  0  0  0  0  0  0  0  0  0  0  0
   -7.7676    0.2096   -1.6897 C   0  0  0  0  0  0  0  0  0  0  0  0
   -5.5983   -0.2792   -0.5837 C   0  0  2  0  0  0  0  0  0  0  0  0
    8.7562   -0.0859   -2.1490 C   0  0  0  0  0  0  0  0  0  0  0  0
   -9.9764    1.1550   -4.4629 N   0  0  0  0  0  0  0  0  0  0  0  0
  -10.4014    0.5826   -2.1927 N   0  0  0  0  0  0  0  0  0  0  0  0
   -8.6740    0.0263   -0.6986 N   0  0  0  0  0  0  0  0  0  0  0  0
   -7.0755    0.6879   -3.7096 N   0  0  0  0  0  0  0  0  0  0  0  0
    3.7051    1.4068   -0.3507 N   0  0  0  0  0  0  0  0  0  0  0  0
    5.2296    1.2593    1.1579 N   0  0  0  0  0  0  0  0  0  0  0  0
   -1.8205    0.1467    2.0981 N   0  0  0  0  0  0  0  0  0  0  0  0
   -6.4198    0.0910   -1.7010 N   0  0  0  0  0  0  0  0  0  0  0  0
   -3.4600   -2.4721    0.8645 O   0  0  0  0  0  0  0  0  0  0  0  0
   -5.7895   -2.5233    0.0595 O   0  0  0  0  0  0  0  0  0  0  0  0
   -4.4813    0.5780   -0.4406 O   0  0  0  0  0  0  0  0  0  0  0  0
   -3.7713   -1.3310    3.2738 H   0  0  0  0  0  0  0  0  0  0  0  0
   -4.5106    0.2426    3.6607 H   0  0  0  0  0  0  0  0  0  0  0  0
   -3.5749   -0.5352    4.9155 H   0  0  0  0  0  0  0  0  0  0  0  0
   -0.5403    1.0547    4.4471 H   0  0  0  0  0  0  0  0  0  0  0  0
   -2.0276    0.9025    5.3585 H   0  0  0  0  0  0  0  0  0  0  0  0
   -1.2108   -0.6005    5.0086 H   0  0  0  0  0  0  0  0  0  0  0  0
   10.6845   -0.4317   -1.2598 H   0  0  0  0  0  0  0  0  0  0  0  0
    9.2269   -0.9035   -0.2394 H   0  0  0  0  0  0  0  0  0  0  0  0
    9.7041    0.8236   -0.4587 H   0  0  0  0  0  0  0  0  0  0  0  0
    9.8792    0.3589   -3.9008 H   0  0  0  0  0  0  0  0  0  0  0  0
    9.9896    1.6570   -2.6054 H   0  0  0  0  0  0  0  0  0  0  0  0
    8.5359    1.4881   -3.6410 H   0  0  0  0  0  0  0  0  0  0  0  0
    7.7358   -1.5763   -3.3977 H   0  0  0  0  0  0  0  0  0  0  0  0
    9.5135   -1.6716   -3.4267 H   0  0  0  0  0  0  0  0  0  0  0  0
    8.5456   -2.2476   -1.9763 H   0  0  0  0  0  0  0  0  0  0  0  0
    1.6716    1.0448    3.5426 H   0  0  0  0  0  0  0  0  0  0  0  0
    3.0982    0.1180    3.0876 H   0  0  0  0  0  0  0  0  0  0  0  0
    6.6435    0.2007   -3.7008 H   0  0  0  0  0  0  0  0  0  0  0  0
    4.3741    0.8472   -3.0550 H   0  0  0  0  0  0  0  0  0  0  0  0
    2.2744    2.6820    1.5941 H   0  0  0  0  0  0  0  0  0  0  0  0
    3.5241    2.4327    2.8696 H   0  0  0  0  0  0  0  0  0  0  0  0
    0.1676    1.6210    1.2362 H   0  0  0  0  0  0  0  0  0  0  0  0
    0.3872    0.4549   -0.1072 H   0  0  0  0  0  0  0  0  0  0  0  0
    0.5613   -0.8119    3.5885 H   0  0  0  0  0  0  0  0  0  0  0  0
    0.7571   -2.0297    2.3118 H   0  0  0  0  0  0  0  0  0  0  0  0
    7.8697    0.4977    0.3477 H   0  0  0  0  0  0  0  0  0  0  0  0
   -1.9494    0.5932    0.0951 H   0  0  0  0  0  0  0  0  0  0  0  0
   -2.8083    1.7127    1.1491 H   0  0  0  0  0  0  0  0  0  0  0  0
  -10.7631    0.0843   -0.2118 H   0  0  0  0  0  0  0  0  0  0  0  0
   -4.9898    0.3872   -3.2933 H   0  0  0  0  0  0  0  0  0  0  0  0
   -2.6716    1.4520    3.3367 H   0  0  0  0  0  0  0  0  0  0  0  0
    2.1328   -0.6810    1.0467 H   0  0  0  0  0  0  0  0  0  0  0  0
   -0.8607   -1.1853    0.8969 H   0  0  0  0  0  0  0  0  0  0  0  0
   -4.6405   -0.2259    1.3854 H   0  0  0  0  0  0  0  0  0  0  0  0
   -2.8144   -1.4074   -0.7882 H   0  0  0  0  0  0  0  0  0  0  0  0
   -4.8872   -1.9939   -1.7274 H   0  0  0  0  0  0  0  0  0  0  0  0
   -6.1593   -0.1464    0.3812 H   0  0  0  0  0  0  0  0  0  0  0  0
  -10.2254    0.4481   -5.1673 H   0  0  0  0  0  0  0  0  0  0  0  0
  -10.0719    2.1599   -4.6818 H   0  0  0  0  0  0  0  0  0  0  0  0
    5.7126    1.2763    2.0704 H   0  0  0  0  0  0  0  0  0  0  0  0
   -3.9514   -3.2862    0.5323 H   0  0  0  0  0  0  0  0  0  0  0  0
   -5.8508   -2.2512    0.9935 H   0  0  0  0  0  0  0  0  0  0  0  0
  7  8  2  0
  6  9  1  0
  1 16  1  0
  2 16  1  0
 17  6  1  0
 10 17  1  0
 11 17  1  0
  7 18  1  0
 12 18  2  0
 10 19  1  0
 11 19  1  0
  8 20  1  0
 12 21  1  0
 20 21  2  0
 22 13  1  0
  9 23  1  0
 22 25  1  0
 25 26  1  0
 24 27  2  0
 24 28  1  0
 26 29  1  0
  3 30  1  0
  4 30  1  0
  5 30  1  0
 18 30  1  0
 27 31  1  0
 14 32  2  0
 27 32  1  0
 14 33  1  0
 28 33  2  0
 15 34  2  0
 24 34  1  0
 20 35  1  0
 23 35  2  0
 21 36  1  0
 23 36  1  0
 13 37  1  0
 16 37  1  0
 19 37  1  0
 15 38  1  0
 28 38  1  0
 29 38  1  0
 25 39  1  0
 26 40  1  0
 22 41  1  0
 29 41  1  0
  1 42  1  0
  1 43  1  0
  1 44  1  0
  2 45  1  0
  2 46  1  0
  2 47  1  0
  3 48  1  0
  3 49  1  0
  3 50  1  0
  4 51  1  0
  4 52  1  0
  4 53  1  0
  5 54  1  0
  5 55  1  0
  5 56  1  0
  6 57  1  0
  6 58  1  0
  7 59  1  0
  8 60  1  0
  9 61  1  0
  9 62  1  0
 10 63  1  0
 10 64  1  0
 11 65  1  0
 11 66  1  0
 12 67  1  0
 13 68  1  0
 13 69  1  0
 14 70  1  0
 15 71  1  0
 16 72  1  0
 17 73  1  6
 19 74  1  6
 22 75  1  1
 25 76  1  6
 26 77  1  6
 29 78  1  1
 31 79  1  0
 31 80  1  0
 36 81  1  0
 39 82  1  0
 40 83  1  0
M  END

