347828289
     RDKit          3D

 73 78  0  0  1  0  0  0  0  0999 V2000
    0.9957   -1.9579    2.3225 C   0  0  0  0  0  0  0  0  0  0  0  0
    0.9307   -0.7842    1.5188 O   0  0  0  0  0  0  0  0  0  0  0  0
    2.1320   -0.1837    1.0868 C   0  0  0  0  0  0  0  0  0  0  0  0
    3.3521   -0.6882    1.4136 C   0  0  0  0  0  0  0  0  0  0  0  0
    4.5000   -0.0742    0.9728 C   0  0  0  0  0  0  0  0  0  0  0  0
    4.4768    1.0607    0.1938 C   0  0  0  0  0  0  0  0  0  0  0  0
    3.2238    1.5715   -0.1361 C   0  0  0  0  0  0  0  0  0  0  0  0
    2.0610    0.9759    0.2910 C   0  0  0  0  0  0  0  0  0  0  0  0
    0.8244    1.4327   -0.0079 O   0  0  0  0  0  0  0  0  0  0  0  0
    0.3434    2.4740   -0.7639 C   0  0  0  0  0  0  0  0  0  0  0  0
    0.6534    2.3595   -2.2111 C   0  0  0  0  0  0  0  0  0  0  0  0
    0.0844    1.0865   -2.7904 C   0  0  0  0  0  0  0  0  0  0  0  0
   -1.1940    0.8351   -2.7770 O   0  0  0  0  0  0  0  0  0  0  0  0
   -2.3678    0.5944   -2.2299 C   0  0  0  0  0  0  0  0  0  0  0  0
   -2.5993    0.4891   -0.8687 C   0  0  0  0  0  0  0  0  0  0  0  0
   -3.8434    0.2381   -0.3088 C   0  0  0  0  0  0  0  0  0  0  0  0
   -4.9274    0.0796   -1.1270 C   0  0  0  0  0  0  0  0  0  0  0  0
   -4.7393    0.1757   -2.4778 C   0  0  0  0  0  0  0  0  0  0  0  0
   -3.5231    0.4224   -3.0466 C   0  0  0  0  0  0  0  0  0  0  0  0
   -3.3415    0.5178   -4.4034 O   0  0  0  0  0  0  0  0  0  0  0  0
   -4.4325    0.3606   -5.2826 C   0  0  0  0  0  0  0  0  0  0  0  0
   -6.2968   -0.1818   -0.7271 C   0  0  0  0  0  0  0  0  0  0  0  0
   -7.0131   -0.6754   -1.6267 O   0  0  0  0  0  0  0  0  0  0  0  0
   -6.8629    0.0698    0.5544 N   0  0  0  0  0  0  0  0  0  0  0  0
   -8.2907    0.0504    0.7808 C   0  0  0  0  0  0  0  0  0  0  0  0
   -8.3837   -0.4706    2.1708 C   0  0  0  0  0  0  0  0  0  0  0  0
   -9.5116   -0.8679    2.7465 C   0  0  0  0  0  0  0  0  0  0  0  0
   -7.0267   -0.4673    2.7847 C   0  0  0  0  0  0  0  0  0  0  0  0
   -6.2535    0.3738    1.7948 C   0  0  1  0  0  0  0  0  0  0  0  0
   -4.8187    0.2405    1.8945 C   0  0  0  0  0  0  0  0  0  0  0  0
   -3.8021    0.1791    1.1123 N   0  0  0  0  0  0  0  0  0  0  0  0
    5.5257    1.8425   -0.3611 N   0  0  0  0  0  0  0  0  0  0  0  0
    6.7780    1.6856   -0.1103 C   0  0  0  0  0  0  0  0  0  0  0  0
    7.6241    0.8307    0.6866 C   0  0  2  0  0  0  0  0  0  0  0  0
    8.8220    0.2749   -0.0572 C   0  0  0  0  0  0  0  0  0  0  0  0
    9.2186   -0.8604    0.8222 C   0  0  0  0  0  0  0  0  0  0  0  0
   10.3206   -1.5726    0.7047 C   0  0  0  0  0  0  0  0  0  0  0  0
    8.1668   -1.0596    1.8561 C   0  0  0  0  0  0  0  0  0  0  0  0
    7.0648   -0.3088    1.2975 N   0  0  0  0  0  0  0  0  0  0  0  0
    5.7279   -0.7532    1.4176 C   0  0  0  0  0  0  0  0  0  0  0  0
    5.5105   -1.8776    1.9742 O   0  0  0  0  0  0  0  0  0  0  0  0
    1.6910   -2.6542    1.7671 H   0  0  0  0  0  0  0  0  0  0  0  0
    0.0341   -2.4795    2.3608 H   0  0  0  0  0  0  0  0  0  0  0  0
    1.4721   -1.7904    3.2967 H   0  0  0  0  0  0  0  0  0  0  0  0
    3.4498   -1.5766    2.0225 H   0  0  0  0  0  0  0  0  0  0  0  0
    3.2274    2.4935   -0.7424 H   0  0  0  0  0  0  0  0  0  0  0  0
    0.7744    3.4756   -0.3637 H   0  0  0  0  0  0  0  0  0  0  0  0
   -0.7511    2.6352   -0.6640 H   0  0  0  0  0  0  0  0  0  0  0  0
    0.2670    3.2451   -2.7952 H   0  0  0  0  0  0  0  0  0  0  0  0
    1.7219    2.3439   -2.4011 H   0  0  0  0  0  0  0  0  0  0  0  0
    0.5872    0.9289   -3.8273 H   0  0  0  0  0  0  0  0  0  0  0  0
    0.6469    0.2655   -2.1971 H   0  0  0  0  0  0  0  0  0  0  0  0
   -1.7577    0.5932   -0.1667 H   0  0  0  0  0  0  0  0  0  0  0  0
   -5.6378    0.0408   -3.0884 H   0  0  0  0  0  0  0  0  0  0  0  0
   -4.7228   -0.7221   -5.2331 H   0  0  0  0  0  0  0  0  0  0  0  0
   -4.1919    0.6706   -6.3199 H   0  0  0  0  0  0  0  0  0  0  0  0
   -5.2671    0.9960   -4.9331 H   0  0  0  0  0  0  0  0  0  0  0  0
   -8.7345    1.0619    0.6703 H   0  0  0  0  0  0  0  0  0  0  0  0
   -8.8280   -0.5933    0.0569 H   0  0  0  0  0  0  0  0  0  0  0  0
  -10.4528   -0.8364    2.2283 H   0  0  0  0  0  0  0  0  0  0  0  0
   -9.4922   -1.2289    3.7482 H   0  0  0  0  0  0  0  0  0  0  0  0
   -7.0950    0.0741    3.7658 H   0  0  0  0  0  0  0  0  0  0  0  0
   -6.6098   -1.4668    2.9466 H   0  0  0  0  0  0  0  0  0  0  0  0
   -6.5159    1.4450    2.0450 H   0  0  0  0  0  0  0  0  0  0  0  0
   -4.4843    0.1691    2.9475 H   0  0  0  0  0  0  0  0  0  0  0  0
    7.3654    2.4303   -0.6779 H   0  0  0  0  0  0  0  0  0  0  0  0
    8.0705    1.4679    1.5085 H   0  0  0  0  0  0  0  0  0  0  0  0
    8.4863   -0.1145   -1.0330 H   0  0  0  0  0  0  0  0  0  0  0  0
    9.6275    1.0319   -0.1297 H   0  0  0  0  0  0  0  0  0  0  0  0
   10.5253   -2.3781    1.3888 H   0  0  0  0  0  0  0  0  0  0  0  0
   11.0307   -1.3600   -0.0753 H   0  0  0  0  0  0  0  0  0  0  0  0
    8.5310   -0.5687    2.7993 H   0  0  0  0  0  0  0  0  0  0  0  0
    7.9238   -2.1258    2.0119 H   0  0  0  0  0  0  0  0  0  0  0  0
  1  2  1  0
  2  3  1  0
  3  4  2  0
  4  5  1  0
  5  6  2  0
  6  7  1  0
  7  8  2  0
  3  8  1  0
  8  9  1  0
  9 10  1  0
 10 11  1  0
 11 12  1  0
 12 13  1  0
 13 14  1  0
 14 15  2  0
 15 16  1  0
 16 17  2  0
 17 18  1  0
 18 19  2  0
 14 19  1  0
 19 20  1  0
 20 21  1  0
 17 22  1  0
 22 23  2  0
 22 24  1  0
 24 25  1  0
 25 26  1  0
 26 27  2  3
 26 28  1  0
 28 29  1  0
 29 24  1  0
 29 30  1  0
 30 31  2  0
 16 31  1  0
  6 32  1  0
 32 33  2  0
 33 34  1  0
 34 35  1  0
 35 36  1  0
 36 37  2  3
 36 38  1  0
 38 39  1  0
 34 39  1  0
 39 40  1  0
  5 40  1  0
 40 41  2  0
  1 42  1  0
  1 43  1  0
  1 44  1  0
  4 45  1  0
  7 46  1  0
 10 47  1  0
 10 48  1  0
 11 49  1  0
 11 50  1  0
 12 51  1  0
 12 52  1  0
 15 53  1  0
 18 54  1  0
 21 55  1  0
 21 56  1  0
 21 57  1  0
 25 58  1  0
 25 59  1  0
 27 60  1  0
 27 61  1  0
 28 62  1  0
 28 63  1  0
 29 64  1  1
 30 65  1  0
 33 66  1  0
 34 67  1  1
 35 68  1  0
 35 69  1  0
 37 70  1  0
 37 71  1  0
 38 72  1  0
 38 73  1  0
M  END

