347828859
     RDKit          3D

 76 79  0  0  0  0  0  0  0  0999 V2000
   -7.9854   -0.6696   -0.5481 C   0  0  0  0  0  0  0  0  0  0  0  0
   -6.9759    0.1897   -1.2867 C   0  0  0  0  0  0  0  0  0  0  0  0
   -6.9319   -0.2894   -2.7249 C   0  0  0  0  0  0  0  0  0  0  0  0
   -7.5136    1.6175   -1.2148 C   0  0  0  0  0  0  0  0  0  0  0  0
   -5.6384    0.0680   -0.6903 C   0  0  0  0  0  0  0  0  0  0  0  0
   -4.6679    1.0071   -0.9657 C   0  0  0  0  0  0  0  0  0  0  0  0
   -3.3891    0.9172   -0.4048 C   0  0  0  0  0  0  0  0  0  0  0  0
   -3.0562   -0.1173    0.4469 C   0  0  0  0  0  0  0  0  0  0  0  0
   -4.0443   -1.0548    0.7147 C   0  0  0  0  0  0  0  0  0  0  0  0
   -5.3028   -0.9689    0.1637 C   0  0  0  0  0  0  0  0  0  0  0  0
   -1.7375   -0.2357    1.0502 C   0  0  0  0  0  0  0  0  0  0  0  0
   -1.2680    0.4649    2.1455 C   0  0  0  0  0  0  0  0  0  0  0  0
   -1.8491    1.4369    2.9631 C   0  0  0  0  0  0  0  0  0  0  0  0
   -1.1701    2.0057    4.0212 C   0  0  0  0  0  0  0  0  0  0  0  0
    0.1195    1.6259    4.3066 C   0  0  0  0  0  0  0  0  0  0  0  0
    0.7046    0.6672    3.5084 C   0  0  0  0  0  0  0  0  0  0  0  0
    0.0226    0.0998    2.4489 C   0  0  0  0  0  0  0  0  0  0  0  0
    0.3544   -0.8491    1.5201 N   0  0  0  0  0  0  0  0  0  0  0  0
   -0.6632   -1.0626    0.6869 C   0  0  0  0  0  0  0  0  0  0  0  0
   -0.7369   -1.9830   -0.4393 C   0  0  0  0  0  0  0  0  0  0  0  0
   -1.7779   -2.0879   -1.1532 O   0  0  0  0  0  0  0  0  0  0  0  0
    0.3323   -2.7859   -0.7712 O   0  0  0  0  0  0  0  0  0  0  0  0
    1.6464   -1.4719    1.5287 C   0  0  0  0  0  0  0  0  0  0  0  0
    2.6575   -0.7708    0.6963 C   0  0  0  0  0  0  0  0  0  0  0  0
    3.7640   -1.5010    0.2881 C   0  0  0  0  0  0  0  0  0  0  0  0
    4.7645   -0.9525   -0.4926 C   0  0  0  0  0  0  0  0  0  0  0  0
    4.6282    0.3742   -0.8682 C   0  0  0  0  0  0  0  0  0  0  0  0
    3.5449    1.1338   -0.4848 C   0  0  0  0  0  0  0  0  0  0  0  0
    2.5774    0.5286    0.2980 C   0  0  0  0  0  0  0  0  0  0  0  0
    3.4106    2.4691   -0.8648 O   0  0  0  0  0  0  0  0  0  0  0  0
    2.3037    3.2306   -0.4763 C   0  0  0  0  0  0  0  0  0  0  0  0
    2.3933    4.6361   -1.0187 C   0  0  0  0  0  0  0  0  0  0  0  0
    3.5143    5.3281   -0.5852 O   0  0  0  0  0  0  0  0  0  0  0  0
    3.5326    5.4425    0.8108 C   0  0  0  0  0  0  0  0  0  0  0  0
    5.8850   -1.6459   -0.9120 O   0  0  0  0  0  0  0  0  0  0  0  0
    6.0666   -3.0130   -0.5384 C   0  0  0  0  0  0  0  0  0  0  0  0
    7.3486   -3.5328   -1.0970 C   0  0  0  0  0  0  0  0  0  0  0  0
    7.6048   -4.8489   -0.7843 O   0  0  0  0  0  0  0  0  0  0  0  0
    6.6185   -5.6758   -1.2927 C   0  0  0  0  0  0  0  0  0  0  0  0
   -7.8010   -0.6173    0.5472 H   0  0  0  0  0  0  0  0  0  0  0  0
   -9.0050   -0.2587   -0.7604 H   0  0  0  0  0  0  0  0  0  0  0  0
   -8.0026   -1.7189   -0.9288 H   0  0  0  0  0  0  0  0  0  0  0  0
   -7.2214   -1.3796   -2.7935 H   0  0  0  0  0  0  0  0  0  0  0  0
   -7.6637    0.3233   -3.2946 H   0  0  0  0  0  0  0  0  0  0  0  0
   -5.9138   -0.1474   -3.1675 H   0  0  0  0  0  0  0  0  0  0  0  0
   -7.3415    2.0105   -0.1954 H   0  0  0  0  0  0  0  0  0  0  0  0
   -7.0590    2.2776   -1.9638 H   0  0  0  0  0  0  0  0  0  0  0  0
   -8.6255    1.5187   -1.3574 H   0  0  0  0  0  0  0  0  0  0  0  0
   -4.8410    1.8510   -1.6206 H   0  0  0  0  0  0  0  0  0  0  0  0
   -2.6535    1.6888   -0.6576 H   0  0  0  0  0  0  0  0  0  0  0  0
   -3.8347   -1.8862    1.3729 H   0  0  0  0  0  0  0  0  0  0  0  0
   -6.0845   -1.6942    0.3665 H   0  0  0  0  0  0  0  0  0  0  0  0
   -2.8657    1.7095    2.6912 H   0  0  0  0  0  0  0  0  0  0  0  0
   -1.6524    2.7562    4.6316 H   0  0  0  0  0  0  0  0  0  0  0  0
    0.6671    2.0767    5.1485 H   0  0  0  0  0  0  0  0  0  0  0  0
    1.7216    0.3681    3.7339 H   0  0  0  0  0  0  0  0  0  0  0  0
    0.3623   -3.3462   -1.6136 H   0  0  0  0  0  0  0  0  0  0  0  0
    2.0615   -1.5794    2.5571 H   0  0  0  0  0  0  0  0  0  0  0  0
    1.6092   -2.5356    1.1449 H   0  0  0  0  0  0  0  0  0  0  0  0
    3.8943   -2.5429    0.5752 H   0  0  0  0  0  0  0  0  0  0  0  0
    5.3874    0.8519   -1.4894 H   0  0  0  0  0  0  0  0  0  0  0  0
    1.7140    1.0929    0.6137 H   0  0  0  0  0  0  0  0  0  0  0  0
    2.0702    3.2056    0.5977 H   0  0  0  0  0  0  0  0  0  0  0  0
    1.3881    2.7851   -0.9784 H   0  0  0  0  0  0  0  0  0  0  0  0
    1.4633    5.1951   -0.7108 H   0  0  0  0  0  0  0  0  0  0  0  0
    2.4324    4.5813   -2.1299 H   0  0  0  0  0  0  0  0  0  0  0  0
    3.5570    4.4296    1.2515 H   0  0  0  0  0  0  0  0  0  0  0  0
    4.4630    6.0111    1.0493 H   0  0  0  0  0  0  0  0  0  0  0  0
    2.6799    6.0550    1.1881 H   0  0  0  0  0  0  0  0  0  0  0  0
    5.2231   -3.5672   -0.9832 H   0  0  0  0  0  0  0  0  0  0  0  0
    6.0695   -3.1553    0.5460 H   0  0  0  0  0  0  0  0  0  0  0  0
    8.2406   -2.9450   -0.7292 H   0  0  0  0  0  0  0  0  0  0  0  0
    7.4028   -3.4312   -2.2142 H   0  0  0  0  0  0  0  0  0  0  0  0
    5.6133   -5.4981   -0.9123 H   0  0  0  0  0  0  0  0  0  0  0  0
    6.8677   -6.7497   -1.1190 H   0  0  0  0  0  0  0  0  0  0  0  0
    6.5910   -5.4611   -2.4010 H   0  0  0  0  0  0  0  0  0  0  0  0
  1  2  1  0
  2  3  1  0
  2  4  1  0
  2  5  1  0
  5  6  2  0
  6  7  1  0
  7  8  2  0
  8  9  1  0
  9 10  2  0
  5 10  1  0
  8 11  1  0
 11 12  1  0
 12 13  2  0
 13 14  1  0
 14 15  2  0
 15 16  1  0
 16 17  2  0
 12 17  1  0
 17 18  1  0
 18 19  1  0
 11 19  2  0
 19 20  1  0
 20 21  2  0
 20 22  1  0
 18 23  1  0
 23 24  1  0
 24 25  2  0
 25 26  1  0
 26 27  2  0
 27 28  1  0
 28 29  2  0
 24 29  1  0
 28 30  1  0
 30 31  1  0
 31 32  1  0
 32 33  1  0
 33 34  1  0
 26 35  1  0
 35 36  1  0
 36 37  1  0
 37 38  1  0
 38 39  1  0
  1 40  1  0
  1 41  1  0
  1 42  1  0
  3 43  1  0
  3 44  1  0
  3 45  1  0
  4 46  1  0
  4 47  1  0
  4 48  1  0
  6 49  1  0
  7 50  1  0
  9 51  1  0
 10 52  1  0
 13 53  1  0
 14 54  1  0
 15 55  1  0
 16 56  1  0
 22 57  1  0
 23 58  1  0
 23 59  1  0
 25 60  1  0
 27 61  1  0
 29 62  1  0
 31 63  1  0
 31 64  1  0
 32 65  1  0
 32 66  1  0
 34 67  1  0
 34 68  1  0
 34 69  1  0
 36 70  1  0
 36 71  1  0
 37 72  1  0
 37 73  1  0
 39 74  1  0
 39 75  1  0
 39 76  1  0
M  END

