347828975
     RDKit          3D

 80 86  0  0  0  0  0  0  0  0999 V2000
  -11.3739   -1.0279   -0.3954 C   0  0  0  0  0  0  0  0  0  0  0  0
   -9.9797   -0.7181   -0.4062 O   0  0  0  0  0  0  0  0  0  0  0  0
   -9.1364   -1.0665   -1.4116 C   0  0  0  0  0  0  0  0  0  0  0  0
   -9.6597   -1.7071   -2.3847 O   0  0  0  0  0  0  0  0  0  0  0  0
   -7.7225   -0.7797   -1.4725 C   0  0  0  0  0  0  0  0  0  0  0  0
   -6.8531   -1.1509   -2.5176 C   0  0  0  0  0  0  0  0  0  0  0  0
   -5.6068   -0.7250   -2.2535 N   0  0  0  0  0  0  0  0  0  0  0  0
   -5.6347   -0.1089   -1.1101 C   0  0  0  0  0  0  0  0  0  0  0  0
   -6.9167   -0.1182   -0.5898 N   0  0  0  0  0  0  0  0  0  0  0  0
   -7.3524    0.3896    0.6647 C   0  0  0  0  0  0  0  0  0  0  0  0
   -7.0683    1.7537    1.1169 C   0  0  0  0  0  0  0  0  0  0  0  0
   -5.7502    2.3478    0.8500 C   0  0  0  0  0  0  0  0  0  0  0  0
   -5.6695    3.6554    1.3195 C   0  0  0  0  0  0  0  0  0  0  0  0
   -4.5392    4.4285    1.1068 C   0  0  0  0  0  0  0  0  0  0  0  0
   -3.4436    3.9309    0.4158 C   0  0  0  0  0  0  0  0  0  0  0  0
   -3.5078    2.6239   -0.0617 C   0  0  0  0  0  0  0  0  0  0  0  0
   -4.6410    1.8864    0.1720 C   0  0  0  0  0  0  0  0  0  0  0  0
   -4.4938    0.5415   -0.3859 C   0  0  0  0  0  0  0  0  0  0  0  0
   -3.3825   -0.1137   -0.3352 C   0  0  0  0  0  0  0  0  0  0  0  0
   -2.1540    0.3216    0.3424 C   0  0  0  0  0  0  0  0  0  0  0  0
   -1.7478   -0.9731    1.1482 C   0  0  0  0  0  0  0  0  0  0  0  0
   -1.2472   -1.8924    0.1864 N   0  0  0  0  0  0  0  0  0  0  0  0
   -2.1518   -2.2552   -0.8344 C   0  0  0  0  0  0  0  0  0  0  0  0
   -3.3405   -1.4226   -1.0877 C   0  0  0  0  0  0  0  0  0  0  0  0
    0.1157   -1.6777   -0.1867 C   0  0  0  0  0  0  0  0  0  0  0  0
    1.0018   -2.0308    0.9712 C   0  0  0  0  0  0  0  0  0  0  0  0
    2.4403   -1.8083    0.7407 C   0  0  0  0  0  0  0  0  0  0  0  0
    3.2708   -2.7466    0.1960 C   0  0  0  0  0  0  0  0  0  0  0  0
    4.6205   -2.4296    0.0407 C   0  0  0  0  0  0  0  0  0  0  0  0
    5.1638   -1.2235    0.4060 C   0  0  0  0  0  0  0  0  0  0  0  0
    4.2779   -0.2867    0.9609 C   0  0  0  0  0  0  0  0  0  0  0  0
    2.9449   -0.5609    1.1295 C   0  0  0  0  0  0  0  0  0  0  0  0
    6.4903   -0.8933    0.2621 O   0  0  0  0  0  0  0  0  0  0  0  0
    7.5203   -1.6621   -0.2550 C   0  0  0  0  0  0  0  0  0  0  0  0
    8.7654   -0.8136   -0.1671 C   0  0  0  0  0  0  0  0  0  0  0  0
    9.9576   -1.3989    0.1885 C   0  0  0  0  0  0  0  0  0  0  0  0
   11.0627   -0.5748    0.2530 C   0  0  0  0  0  0  0  0  0  0  0  0
   10.9828    0.7835   -0.0263 C   0  0  0  0  0  0  0  0  0  0  0  0
   12.1105    1.5646    0.0515 C   0  0  0  0  0  0  0  0  0  0  0  0
   12.0094    2.9303   -0.2334 C   0  0  0  0  0  0  0  0  0  0  0  0
   10.7994    3.4951   -0.5882 C   0  0  0  0  0  0  0  0  0  0  0  0
    9.7057    2.6598   -0.6490 C   0  0  0  0  0  0  0  0  0  0  0  0
    9.7682    1.3103   -0.3753 C   0  0  0  0  0  0  0  0  0  0  0  0
    8.6854    0.4994   -0.4378 N   0  0  0  0  0  0  0  0  0  0  0  0
  -11.6025   -1.8663   -1.0782 H   0  0  0  0  0  0  0  0  0  0  0  0
  -11.7263   -1.2682    0.6493 H   0  0  0  0  0  0  0  0  0  0  0  0
  -11.8958   -0.1308   -0.7838 H   0  0  0  0  0  0  0  0  0  0  0  0
   -7.1784   -1.6977   -3.3822 H   0  0  0  0  0  0  0  0  0  0  0  0
   -8.4362    0.1768    0.8315 H   0  0  0  0  0  0  0  0  0  0  0  0
   -6.8754   -0.3072    1.4604 H   0  0  0  0  0  0  0  0  0  0  0  0
   -7.8967    2.4662    0.8074 H   0  0  0  0  0  0  0  0  0  0  0  0
   -7.1652    1.7473    2.2563 H   0  0  0  0  0  0  0  0  0  0  0  0
   -6.4803    4.1115    1.8625 H   0  0  0  0  0  0  0  0  0  0  0  0
   -4.4758    5.4541    1.4747 H   0  0  0  0  0  0  0  0  0  0  0  0
   -2.5833    4.5325    0.2604 H   0  0  0  0  0  0  0  0  0  0  0  0
   -2.7203    2.2044   -0.6708 H   0  0  0  0  0  0  0  0  0  0  0  0
   -2.2810    1.0372    1.1672 H   0  0  0  0  0  0  0  0  0  0  0  0
   -1.3070    0.5927   -0.2781 H   0  0  0  0  0  0  0  0  0  0  0  0
   -1.1021   -0.7242    1.9725 H   0  0  0  0  0  0  0  0  0  0  0  0
   -2.7037   -1.3457    1.5508 H   0  0  0  0  0  0  0  0  0  0  0  0
   -2.4970   -3.3158   -0.5857 H   0  0  0  0  0  0  0  0  0  0  0  0
   -1.5847   -2.4055   -1.7878 H   0  0  0  0  0  0  0  0  0  0  0  0
   -3.3506   -1.1391   -2.1742 H   0  0  0  0  0  0  0  0  0  0  0  0
   -4.2614   -1.9733   -0.8350 H   0  0  0  0  0  0  0  0  0  0  0  0
    0.3374   -0.6299   -0.4914 H   0  0  0  0  0  0  0  0  0  0  0  0
    0.3317   -2.2922   -1.0883 H   0  0  0  0  0  0  0  0  0  0  0  0
    0.7153   -1.5114    1.9042 H   0  0  0  0  0  0  0  0  0  0  0  0
    0.9102   -3.1287    1.2332 H   0  0  0  0  0  0  0  0  0  0  0  0
    2.8422   -3.6880   -0.0883 H   0  0  0  0  0  0  0  0  0  0  0  0
    5.2473   -3.1862   -0.3902 H   0  0  0  0  0  0  0  0  0  0  0  0
    4.6546    0.6708    1.2630 H   0  0  0  0  0  0  0  0  0  0  0  0
    2.2676    0.1899    1.5685 H   0  0  0  0  0  0  0  0  0  0  0  0
    7.2847   -1.8143   -1.3510 H   0  0  0  0  0  0  0  0  0  0  0  0
    7.6970   -2.6334    0.2045 H   0  0  0  0  0  0  0  0  0  0  0  0
   10.0663   -2.4509    0.4143 H   0  0  0  0  0  0  0  0  0  0  0  0
   12.0194   -1.0053    0.5311 H   0  0  0  0  0  0  0  0  0  0  0  0
   13.0839    1.1575    0.3280 H   0  0  0  0  0  0  0  0  0  0  0  0
   12.8666    3.5894   -0.1859 H   0  0  0  0  0  0  0  0  0  0  0  0
   10.7274    4.5358   -0.8052 H   0  0  0  0  0  0  0  0  0  0  0  0
    8.7516    3.0919   -0.9261 H   0  0  0  0  0  0  0  0  0  0  0  0
  1  2  1  0
  2  3  1  0
  3  4  2  0
  3  5  1  0
  5  6  2  0
  6  7  1  0
  7  8  2  0
  8  9  1  0
  5  9  1  0
  9 10  1  0
 10 11  1  0
 11 12  1  0
 12 13  2  0
 13 14  1  0
 14 15  2  0
 15 16  1  0
 16 17  2  0
 12 17  1  0
 17 18  1  0
  8 18  1  0
 18 19  2  3
 19 20  1  0
 20 21  1  0
 21 22  1  0
 22 23  1  0
 23 24  1  0
 19 24  1  0
 22 25  1  0
 25 26  1  0
 26 27  1  0
 27 28  2  0
 28 29  1  0
 29 30  2  0
 30 31  1  0
 31 32  2  0
 27 32  1  0
 30 33  1  0
 33 34  1  0
 34 35  1  0
 35 36  2  0
 36 37  1  0
 37 38  2  0
 38 39  1  0
 39 40  2  0
 40 41  1  0
 41 42  2  0
 42 43  1  0
 38 43  1  0
 43 44  2  0
 35 44  1  0
  1 45  1  0
  1 46  1  0
  1 47  1  0
  6 48  1  0
 10 49  1  0
 10 50  1  0
 11 51  1  0
 11 52  1  0
 13 53  1  0
 14 54  1  0
 15 55  1  0
 16 56  1  0
 20 57  1  0
 20 58  1  0
 21 59  1  0
 21 60  1  0
 23 61  1  0
 23 62  1  0
 24 63  1  0
 24 64  1  0
 25 65  1  0
 25 66  1  0
 26 67  1  0
 26 68  1  0
 28 69  1  0
 29 70  1  0
 31 71  1  0
 32 72  1  0
 34 73  1  0
 34 74  1  0
 36 75  1  0
 37 76  1  0
 39 77  1  0
 40 78  1  0
 41 79  1  0
 42 80  1  0
M  END

