347829200
     RDKit          3D

 65 69  0  0  1  0  0  0  0  0999 V2000
    9.2483    0.8086    0.6284 C   0  0  0  0  0  0  0  0  0  0  0  0
    9.2980    0.0209   -0.6663 C   0  0  0  0  0  0  0  0  0  0  0  0
    8.1548   -0.8635   -0.6608 N   0  0  0  0  0  0  0  0  0  0  0  0
    6.7974   -0.3677   -0.5888 C   0  0  0  0  0  0  0  0  0  0  0  0
    6.6809    0.8700   -0.5320 O   0  0  0  0  0  0  0  0  0  0  0  0
    5.7259   -1.2492   -0.5853 N   0  0  0  0  0  0  0  0  0  0  0  0
    4.3573   -0.9022   -0.5240 C   0  0  0  0  0  0  0  0  0  0  0  0
    3.4149   -1.9175   -0.3477 C   0  0  0  0  0  0  0  0  0  0  0  0
    2.0747   -1.6349   -0.2900 C   0  0  0  0  0  0  0  0  0  0  0  0
    1.5821   -0.3533   -0.4007 C   0  0  0  0  0  0  0  0  0  0  0  0
    2.5081    0.6398   -0.5737 C   0  0  0  0  0  0  0  0  0  0  0  0
    3.8701    0.3770   -0.6351 C   0  0  0  0  0  0  0  0  0  0  0  0
    0.1520   -0.1258   -0.3259 C   0  0  0  0  0  0  0  0  0  0  0  0
   -0.3044    1.1486   -0.4459 N   0  0  0  0  0  0  0  0  0  0  0  0
   -1.6300    1.4130   -0.3785 C   0  0  0  0  0  0  0  0  0  0  0  0
   -2.5544    0.4060   -0.1872 C   0  0  0  0  0  0  0  0  0  0  0  0
   -2.0914   -0.8807   -0.0663 C   0  0  0  0  0  0  0  0  0  0  0  0
   -0.7440   -1.0889   -0.1423 N   0  0  0  0  0  0  0  0  0  0  0  0
   -2.9986   -1.9531    0.1362 N   0  0  0  0  0  0  0  0  0  0  0  0
   -3.8447   -2.0194    1.3123 C   0  0  0  0  0  0  0  0  0  0  0  0
   -3.3706   -3.2746    2.0633 C   0  0  0  0  0  0  0  0  0  0  0  0
   -3.2670   -4.3606    1.2269 O   0  0  0  0  0  0  0  0  0  0  0  0
   -3.8084   -4.1858   -0.0277 C   0  0  0  0  0  0  0  0  0  0  0  0
   -3.1501   -3.0604   -0.8071 C   0  0  2  0  0  0  0  0  0  0  0  0
   -1.8218   -3.5661   -1.3047 C   0  0  0  0  0  0  0  0  0  0  0  0
   -3.9739    0.8164   -0.1297 C   0  0  0  0  0  0  0  0  0  0  0  0
   -3.9897    1.9862    0.8663 C   0  0  0  0  0  0  0  0  0  0  0  0
   -3.1825    3.0723    0.4650 N   0  0  0  0  0  0  0  0  0  0  0  0
   -2.1914    2.7797   -0.5048 C   0  0  0  0  0  0  0  0  0  0  0  0
   -3.7527    4.3577    0.4059 C   0  0  0  0  0  0  0  0  0  0  0  0
   -4.8824    4.5974   -0.5517 C   0  0  0  0  0  0  0  0  0  0  0  0
   -5.7085    4.8353    0.5483 O   0  0  0  0  0  0  0  0  0  0  0  0
   -4.6998    4.7229    1.4993 C   0  0  0  0  0  0  0  0  0  0  0  0
   10.2950    1.0713    0.9407 H   0  0  0  0  0  0  0  0  0  0  0  0
    8.6437    1.7202    0.4915 H   0  0  0  0  0  0  0  0  0  0  0  0
    8.8055    0.1501    1.4038 H   0  0  0  0  0  0  0  0  0  0  0  0
    9.2612    0.7203   -1.5316 H   0  0  0  0  0  0  0  0  0  0  0  0
   10.2292   -0.5681   -0.6510 H   0  0  0  0  0  0  0  0  0  0  0  0
    8.3188   -1.8877   -0.7105 H   0  0  0  0  0  0  0  0  0  0  0  0
    5.9626   -2.2915   -0.6377 H   0  0  0  0  0  0  0  0  0  0  0  0
    3.8042   -2.9274   -0.2598 H   0  0  0  0  0  0  0  0  0  0  0  0
    1.3849   -2.4427   -0.1536 H   0  0  0  0  0  0  0  0  0  0  0  0
    2.1702    1.6741   -0.6669 H   0  0  0  0  0  0  0  0  0  0  0  0
    4.5382    1.1938   -0.7768 H   0  0  0  0  0  0  0  0  0  0  0  0
   -4.8954   -2.1954    0.9735 H   0  0  0  0  0  0  0  0  0  0  0  0
   -3.7239   -1.1913    2.0097 H   0  0  0  0  0  0  0  0  0  0  0  0
   -2.3212   -3.0139    2.3891 H   0  0  0  0  0  0  0  0  0  0  0  0
   -3.9883   -3.4483    2.9669 H   0  0  0  0  0  0  0  0  0  0  0  0
   -4.9013   -4.0485    0.0657 H   0  0  0  0  0  0  0  0  0  0  0  0
   -3.6307   -5.1190   -0.5990 H   0  0  0  0  0  0  0  0  0  0  0  0
   -3.8008   -2.8077   -1.6427 H   0  0  0  0  0  0  0  0  0  0  0  0
   -1.0633   -3.5593   -0.4976 H   0  0  0  0  0  0  0  0  0  0  0  0
   -1.5082   -2.9626   -2.1815 H   0  0  0  0  0  0  0  0  0  0  0  0
   -1.9671   -4.6193   -1.6200 H   0  0  0  0  0  0  0  0  0  0  0  0
   -4.6723    0.0501    0.1948 H   0  0  0  0  0  0  0  0  0  0  0  0
   -4.2146    1.2331   -1.1395 H   0  0  0  0  0  0  0  0  0  0  0  0
   -5.0249    2.2363    1.1593 H   0  0  0  0  0  0  0  0  0  0  0  0
   -3.5253    1.5465    1.7994 H   0  0  0  0  0  0  0  0  0  0  0  0
   -2.5721    2.8876   -1.5442 H   0  0  0  0  0  0  0  0  0  0  0  0
   -1.3398    3.4922   -0.4174 H   0  0  0  0  0  0  0  0  0  0  0  0
   -2.9490    5.1362    0.2619 H   0  0  0  0  0  0  0  0  0  0  0  0
   -4.7753    5.5215   -1.1571 H   0  0  0  0  0  0  0  0  0  0  0  0
   -5.1805    3.7601   -1.1930 H   0  0  0  0  0  0  0  0  0  0  0  0
   -4.8280    3.9410    2.2587 H   0  0  0  0  0  0  0  0  0  0  0  0
   -4.4293    5.7000    1.9890 H   0  0  0  0  0  0  0  0  0  0  0  0
  1  2  1  0
  2  3  1  0
  3  4  1  0
  4  5  2  0
  4  6  1  0
  6  7  1  0
  7  8  2  0
  8  9  1  0
  9 10  2  0
 10 11  1  0
 11 12  2  0
  7 12  1  0
 10 13  1  0
 13 14  2  0
 14 15  1  0
 15 16  2  0
 16 17  1  0
 17 18  2  0
 13 18  1  0
 17 19  1  0
 19 20  1  0
 20 21  1  0
 21 22  1  0
 22 23  1  0
 23 24  1  0
 19 24  1  0
 24 25  1  0
 16 26  1  0
 26 27  1  0
 27 28  1  0
 28 29  1  0
 15 29  1  0
 28 30  1  0
 30 31  1  0
 31 32  1  0
 32 33  1  0
 30 33  1  0
  1 34  1  0
  1 35  1  0
  1 36  1  0
  2 37  1  0
  2 38  1  0
  3 39  1  0
  6 40  1  0
  8 41  1  0
  9 42  1  0
 11 43  1  0
 12 44  1  0
 20 45  1  0
 20 46  1  0
 21 47  1  0
 21 48  1  0
 23 49  1  0
 23 50  1  0
 24 51  1  6
 25 52  1  0
 25 53  1  0
 25 54  1  0
 26 55  1  0
 26 56  1  0
 27 57  1  0
 27 58  1  0
 29 59  1  0
 29 60  1  0
 30 61  1  0
 31 62  1  0
 31 63  1  0
 33 64  1  0
 33 65  1  0
M  END

