347828941
     RDKit          3D

 52 54  0  0  1  0  0  0  0  0999 V2000
   -2.1857    3.5495    0.5067 C   0  0  0  0  0  0  0  0  0  0  0  0
   -2.6765    1.8807   -1.1588 C   0  0  0  0  0  0  0  0  0  0  0  0
    5.4293   -3.1156   -0.9431 C   0  0  0  0  0  0  0  0  0  0  0  0
   -4.9431   -1.9788   -1.1819 C   0  0  0  0  0  0  0  0  0  0  0  0
   -4.4193   -3.2475   -1.1185 C   0  0  0  0  0  0  0  0  0  0  0  0
    4.0590   -3.1162   -0.8283 C   0  0  0  0  0  0  0  0  0  0  0  0
    6.1598   -1.9700   -0.6960 C   0  0  0  0  0  0  0  0  0  0  0  0
   -4.3190   -0.9444   -0.5164 C   0  0  0  0  0  0  0  0  0  0  0  0
   -3.2647   -3.4294   -0.3727 C   0  0  0  0  0  0  0  0  0  0  0  0
    3.3708   -1.9588   -0.4589 C   0  0  0  0  0  0  0  0  0  0  0  0
   -2.5036    1.1800    1.1915 C   0  0  0  0  0  0  0  0  0  0  0  0
    6.2228    0.3627   -0.0728 C   0  0  0  0  0  0  0  0  0  0  0  0
   -1.3648   -1.0566    1.4991 C   0  0  0  0  0  0  0  0  0  0  0  0
    0.2956    2.1652    0.9929 C   0  0  0  0  0  0  0  0  0  0  0  0
    2.0779    0.5332    0.3214 C   0  0  0  0  0  0  0  0  0  0  0  0
    5.4574   -0.8171   -0.3266 C   0  0  0  0  0  0  0  0  0  0  0  0
   -2.3705   -0.2690    0.9830 C   0  0  0  0  0  0  0  0  0  0  0  0
    1.7528    1.9707    0.7184 C   0  0  0  0  0  0  0  0  0  0  0  0
   -3.1555   -1.1238    0.2349 C   0  0  0  0  0  0  0  0  0  0  0  0
   -2.6454   -2.4008    0.2880 C   0  0  0  0  0  0  0  0  0  0  0  0
    4.0871   -0.8068   -0.2089 C   0  0  0  0  0  0  0  0  0  0  0  0
   -1.9520    2.0670    0.1442 C   0  0  0  0  0  0  0  0  0  0  0  0
    6.8541    1.3119    0.1492 N   0  0  0  0  0  0  0  0  0  0  0  0
   -1.5365   -2.3374    1.0763 N   0  0  0  0  0  0  0  0  0  0  0  0
   -0.5432    1.8756   -0.1400 N   0  0  0  0  0  0  0  0  0  0  0  0
    2.2041    2.8143   -0.3167 O   0  0  0  0  0  0  0  0  0  0  0  0
    3.4548    0.3516    0.1559 O   0  0  0  0  0  0  0  0  0  0  0  0
   -3.2906    3.6750    0.4974 H   0  0  0  0  0  0  0  0  0  0  0  0
   -1.7915    3.7919    1.4913 H   0  0  0  0  0  0  0  0  0  0  0  0
   -1.8011    4.1578   -0.3272 H   0  0  0  0  0  0  0  0  0  0  0  0
   -3.7614    2.1485   -1.0749 H   0  0  0  0  0  0  0  0  0  0  0  0
   -2.2484    2.6656   -1.8618 H   0  0  0  0  0  0  0  0  0  0  0  0
   -2.4800    0.9293   -1.6589 H   0  0  0  0  0  0  0  0  0  0  0  0
    5.9158   -4.0339   -1.2314 H   0  0  0  0  0  0  0  0  0  0  0  0
   -5.8406   -1.8402   -1.7616 H   0  0  0  0  0  0  0  0  0  0  0  0
   -4.8636   -4.0893   -1.6170 H   0  0  0  0  0  0  0  0  0  0  0  0
    3.5254   -4.0305   -1.0299 H   0  0  0  0  0  0  0  0  0  0  0  0
    7.2369   -1.9818   -0.7899 H   0  0  0  0  0  0  0  0  0  0  0  0
   -4.7599    0.0518   -0.5700 H   0  0  0  0  0  0  0  0  0  0  0  0
   -2.8409   -4.4380   -0.3171 H   0  0  0  0  0  0  0  0  0  0  0  0
    2.2967   -1.9274   -0.3604 H   0  0  0  0  0  0  0  0  0  0  0  0
   -3.6096    1.4232    1.2678 H   0  0  0  0  0  0  0  0  0  0  0  0
   -2.1216    1.4012    2.2163 H   0  0  0  0  0  0  0  0  0  0  0  0
   -0.5336   -0.7568    2.1537 H   0  0  0  0  0  0  0  0  0  0  0  0
    0.1745    3.2089    1.3543 H   0  0  0  0  0  0  0  0  0  0  0  0
   -0.0257    1.5251    1.8320 H   0  0  0  0  0  0  0  0  0  0  0  0
    1.6003    0.3331   -0.6800 H   0  0  0  0  0  0  0  0  0  0  0  0
    1.6157   -0.1792    1.0329 H   0  0  0  0  0  0  0  0  0  0  0  0
    2.3674    2.2190    1.6055 H   0  0  0  0  0  0  0  0  0  0  0  0
   -0.9078   -3.1243    1.3289 H   0  0  0  0  0  0  0  0  0  0  0  0
   -0.3431    0.9772   -0.5894 H   0  0  0  0  0  0  0  0  0  0  0  0
    2.9407    2.4026   -0.8323 H   0  0  0  0  0  0  0  0  0  0  0  0
  4  5  2  0
  3  6  2  0
  3  7  1  0
  4  8  1  0
  5  9  1  0
  6 10  1  0
  7 16  2  0
 12 16  1  0
 11 17  1  0
 13 17  2  0
 14 18  1  0
 15 18  1  0
  8 19  2  0
 17 19  1  0
  9 20  2  0
 19 20  1  0
 10 21  2  0
 16 21  1  0
  1 22  1  0
  2 22  1  0
 11 22  1  0
 12 23  3  0
 13 24  1  0
 20 24  1  0
 14 25  1  0
 22 25  1  0
 18 26  1  0
 15 27  1  0
 21 27  1  0
  1 28  1  0
  1 29  1  0
  1 30  1  0
  2 31  1  0
  2 32  1  0
  2 33  1  0
  3 34  1  0
  4 35  1  0
  5 36  1  0
  6 37  1  0
  7 38  1  0
  8 39  1  0
  9 40  1  0
 10 41  1  0
 11 42  1  0
 11 43  1  0
 13 44  1  0
 14 45  1  0
 14 46  1  0
 15 47  1  0
 15 48  1  0
 18 49  1  0
 24 50  1  0
 25 51  1  0
 26 52  1  0
M  END

