347829326
     RDKit          3D

 50 52  0  0  0  0  0  0  0  0999 V2000
    6.4855   -1.1057   -0.5292 C   0  0  0  0  0  0  0  0  0  0  0  0
    5.1330   -1.6599   -0.1559 C   0  0  0  0  0  0  0  0  0  0  0  0
    4.7202   -2.6178   -1.1077 O   0  0  0  0  0  0  0  0  0  0  0  0
    5.1317   -2.3237    1.1892 C   0  0  0  0  0  0  0  0  0  0  0  0
    4.0573   -0.5663   -0.1458 C   0  0  0  0  0  0  0  0  0  0  0  0
    2.8174   -1.2171    0.1870 N   0  0  0  0  0  0  0  0  0  0  0  0
    1.5434   -0.5743    0.1951 C   0  0  0  0  0  0  0  0  0  0  0  0
    1.3201    0.7137   -0.0745 N   0  0  0  0  0  0  0  0  0  0  0  0
    0.0484    1.2237   -0.1224 C   0  0  0  0  0  0  0  0  0  0  0  0
   -0.1016    2.6460   -0.3988 C   0  0  0  0  0  0  0  0  0  0  0  0
   -1.2950    3.2050   -0.4708 N   0  0  0  0  0  0  0  0  0  0  0  0
   -1.5122    4.5139   -0.7119 C   0  0  0  0  0  0  0  0  0  0  0  0
   -2.9183    4.9724   -0.7637 C   0  0  0  0  0  0  0  0  0  0  0  0
   -3.1192    5.9381   -1.7283 F   0  0  0  0  0  0  0  0  0  0  0  0
   -3.7107    3.8910   -1.0883 F   0  0  0  0  0  0  0  0  0  0  0  0
   -3.2530    5.3941    0.5015 F   0  0  0  0  0  0  0  0  0  0  0  0
   -0.4377    5.3265   -0.8959 C   0  0  0  0  0  0  0  0  0  0  0  0
    0.8408    4.7937   -0.8307 C   0  0  0  0  0  0  0  0  0  0  0  0
    1.0112    3.4530   -0.5825 C   0  0  0  0  0  0  0  0  0  0  0  0
   -0.9836    0.3907    0.1092 N   0  0  0  0  0  0  0  0  0  0  0  0
   -0.8166   -0.9079    0.3852 C   0  0  0  0  0  0  0  0  0  0  0  0
   -1.8545   -1.8412    0.6025 N   0  0  0  0  0  0  0  0  0  0  0  0
   -3.2448   -1.6360    0.5692 C   0  0  0  0  0  0  0  0  0  0  0  0
   -4.0445   -2.7943    0.5403 C   0  0  0  0  0  0  0  0  0  0  0  0
   -5.4012   -2.7148    0.4921 C   0  0  0  0  0  0  0  0  0  0  0  0
   -6.1636   -3.9896    0.4487 C   0  0  0  0  0  0  0  0  0  0  0  0
   -5.7409   -4.7598   -0.6230 F   0  0  0  0  0  0  0  0  0  0  0  0
   -7.5138   -3.7718    0.2673 F   0  0  0  0  0  0  0  0  0  0  0  0
   -5.9656   -4.6729    1.6333 F   0  0  0  0  0  0  0  0  0  0  0  0
   -5.9805   -1.5127    0.4736 N   0  0  0  0  0  0  0  0  0  0  0  0
   -5.2490   -0.3711    0.5016 C   0  0  0  0  0  0  0  0  0  0  0  0
   -3.8686   -0.4071    0.5495 C   0  0  0  0  0  0  0  0  0  0  0  0
    0.4648   -1.3428    0.4168 N   0  0  0  0  0  0  0  0  0  0  0  0
    6.7541   -0.3415    0.2181 H   0  0  0  0  0  0  0  0  0  0  0  0
    7.1868   -1.9597   -0.5699 H   0  0  0  0  0  0  0  0  0  0  0  0
    6.3907   -0.5892   -1.5129 H   0  0  0  0  0  0  0  0  0  0  0  0
    3.7973   -2.3902   -1.3587 H   0  0  0  0  0  0  0  0  0  0  0  0
    4.5295   -3.2727    1.1349 H   0  0  0  0  0  0  0  0  0  0  0  0
    4.6549   -1.6818    1.9675 H   0  0  0  0  0  0  0  0  0  0  0  0
    6.1490   -2.6283    1.4742 H   0  0  0  0  0  0  0  0  0  0  0  0
    4.0364   -0.0751   -1.1367 H   0  0  0  0  0  0  0  0  0  0  0  0
    4.2732    0.1731    0.6537 H   0  0  0  0  0  0  0  0  0  0  0  0
    2.8500   -2.2328    0.4471 H   0  0  0  0  0  0  0  0  0  0  0  0
   -0.5979    6.3969   -1.0987 H   0  0  0  0  0  0  0  0  0  0  0  0
    1.6995    5.4354   -0.9750 H   0  0  0  0  0  0  0  0  0  0  0  0
    1.9913    2.9977   -0.5262 H   0  0  0  0  0  0  0  0  0  0  0  0
   -1.5343   -2.8465    0.8289 H   0  0  0  0  0  0  0  0  0  0  0  0
   -3.5764   -3.7678    0.5546 H   0  0  0  0  0  0  0  0  0  0  0  0
   -5.7285    0.6082    0.4874 H   0  0  0  0  0  0  0  0  0  0  0  0
   -3.2743    0.4991    0.5793 H   0  0  0  0  0  0  0  0  0  0  0  0
  1  2  1  0
  2  3  1  0
  2  4  1  0
  2  5  1  0
  5  6  1  0
  6  7  1  0
  7  8  2  0
  7 33  1  0
  8  9  1  0
  9 10  1  0
  9 20  2  0
 10 11  2  0
 10 19  1  0
 11 12  1  0
 12 13  1  0
 12 17  2  0
 13 14  1  0
 13 15  1  0
 13 16  1  0
 17 18  1  0
 18 19  2  0
 20 21  1  0
 21 22  1  0
 21 33  2  0
 22 23  1  0
 23 24  2  0
 23 32  1  0
 24 25  1  0
 25 26  1  0
 25 30  2  0
 26 27  1  0
 26 28  1  0
 26 29  1  0
 30 31  1  0
 31 32  2  0
  1 34  1  0
  1 35  1  0
  1 36  1  0
  3 37  1  0
  4 38  1  0
  4 39  1  0
  4 40  1  0
  5 41  1  0
  5 42  1  0
  6 43  1  0
 17 44  1  0
 18 45  1  0
 19 46  1  0
 22 47  1  0
 24 48  1  0
 31 49  1  0
 32 50  1  0
M  END

