347827777
     RDKit          3D

 44 47  0  0  0  0  0  0  0  0999 V2000
   -2.3898    0.7191    0.1276 C   0  0  0  0  0  0  0  0  0  0  0  0
   -3.3339    0.7757   -0.8131 N   0  0  0  0  0  0  0  0  0  0  0  0
   -1.1651    0.0959   -0.2029 C   0  0  0  0  0  0  0  0  0  0  0  0
    2.5073    0.1593   -1.6636 C   0  0  0  0  0  0  0  0  0  0  0  0
   -2.8647    1.3248    1.2308 N   0  0  0  0  0  0  0  0  0  0  0  0
   -0.9291   -0.4319   -1.4204 C   0  0  0  0  0  0  0  0  0  0  0  0
   -4.3766    1.4030   -0.3052 N   0  0  0  0  0  0  0  0  0  0  0  0
    1.3829   -0.1899   -2.2167 N   0  0  0  0  0  0  0  0  0  0  0  0
    3.3371   -0.3186   -0.5517 C   0  0  0  0  0  0  0  0  0  0  0  0
   -1.9517   -0.3329   -2.3318 N   0  0  0  0  0  0  0  0  0  0  0  0
   -3.1124    0.2508   -2.0357 C   0  0  0  0  0  0  0  0  0  0  0  0
   -4.1303    1.7665    0.9727 C   0  0  0  0  0  0  0  0  0  0  0  0
    2.9917    1.2390   -2.4017 N   0  0  0  0  0  0  0  0  0  0  0  0
    0.3317   -1.0958   -1.8659 C   0  0  0  0  0  0  0  0  0  0  0  0
    4.5059    0.3685   -0.3318 N   0  0  0  0  0  0  0  0  0  0  0  0
    2.1673    1.5195   -3.3815 C   0  0  0  0  0  0  0  0  0  0  0  0
    1.1483    0.6490   -3.3036 C   0  0  0  0  0  0  0  0  0  0  0  0
    3.1397   -1.3687    0.2345 C   0  0  0  0  0  0  0  0  0  0  0  0
   -0.1974    0.0333    0.9007 C   0  0  0  0  0  0  0  0  0  0  0  0
    2.0814   -2.1794    0.1506 F   0  0  0  0  0  0  0  0  0  0  0  0
   -5.0563    2.4918    1.8820 C   0  0  0  0  0  0  0  0  0  0  0  0
    5.3929    0.0364    0.5897 C   0  0  0  0  0  0  0  0  0  0  0  0
    4.0532   -1.7652    1.2322 C   0  0  0  0  0  0  0  0  0  0  0  0
   -0.4699   -1.1629    1.7585 C   0  0  0  0  0  0  0  0  0  0  0  0
    5.1917   -1.0497    1.4068 C   0  0  0  0  0  0  0  0  0  0  0  0
   -1.8065   -1.2266    2.4143 C   0  0  0  0  0  0  0  0  0  0  0  0
   -3.9264    0.3297   -2.7594 H   0  0  0  0  0  0  0  0  0  0  0  0
    0.0369   -1.6251   -2.8632 H   0  0  0  0  0  0  0  0  0  0  0  0
    0.6292   -1.8904   -1.2285 H   0  0  0  0  0  0  0  0  0  0  0  0
    2.3046    2.3259   -4.1225 H   0  0  0  0  0  0  0  0  0  0  0  0
    0.3019    0.6237   -3.9814 H   0  0  0  0  0  0  0  0  0  0  0  0
    0.8339    0.0925    0.6301 H   0  0  0  0  0  0  0  0  0  0  0  0
   -0.3688    0.9506    1.5606 H   0  0  0  0  0  0  0  0  0  0  0  0
   -4.7958    2.2922    2.9504 H   0  0  0  0  0  0  0  0  0  0  0  0
   -4.9927    3.5920    1.7523 H   0  0  0  0  0  0  0  0  0  0  0  0
   -6.1035    2.2025    1.6531 H   0  0  0  0  0  0  0  0  0  0  0  0
    6.2980    0.6359    0.7017 H   0  0  0  0  0  0  0  0  0  0  0  0
    3.8796   -2.6153    1.8598 H   0  0  0  0  0  0  0  0  0  0  0  0
   -0.3815   -2.1003    1.1489 H   0  0  0  0  0  0  0  0  0  0  0  0
    0.3375   -1.2922    2.5417 H   0  0  0  0  0  0  0  0  0  0  0  0
    5.9425   -1.3132    2.1719 H   0  0  0  0  0  0  0  0  0  0  0  0
   -1.9315   -0.3966    3.1377 H   0  0  0  0  0  0  0  0  0  0  0  0
   -2.6435   -1.3501    1.7145 H   0  0  0  0  0  0  0  0  0  0  0  0
   -1.8680   -2.1729    3.0574 H   0  0  0  0  0  0  0  0  0  0  0  0
  1  2  1  0
  1  3  1  0
  4  8  1  0
  1  5  2  0
  3  6  2  0
  2  7  1  0
  8 14  1  0
  4  9  1  0
 10 11  2  0
  2 11  1  0
  5 12  1  0
  4 13  2  0
  6 14  1  0
  9 15  2  0
 16 17  2  0
  8 17  1  0
  9 18  1  0
  3 19  1  0
 18 20  1  0
 12 21  1  0
 15 22  1  0
 18 23  2  0
 19 24  1  0
 22 25  2  0
 24 26  1  0
  7 12  2  0
  6 10  1  0
 13 16  1  0
 23 25  1  0
 11 27  1  0
 14 28  1  0
 14 29  1  0
 16 30  1  0
 17 31  1  0
 19 32  1  0
 19 33  1  0
 21 34  1  0
 21 35  1  0
 21 36  1  0
 22 37  1  0
 23 38  1  0
 24 39  1  0
 24 40  1  0
 25 41  1  0
 26 42  1  0
 26 43  1  0
 26 44  1  0
M  END

