347828557
     RDKit          3D

 65 68  0  0  1  0  0  0  0  0999 V2000
   -5.4492    3.3703   -3.2363 C   0  0  0  0  0  0  0  0  0  0  0  0
   -6.2985    2.2420   -3.0352 N   0  0  0  0  0  0  0  0  0  0  0  0
   -6.9053    2.2253   -1.7092 C   0  0  0  0  0  0  0  0  0  0  0  0
   -5.8811    2.0597   -0.5969 C   0  0  0  0  0  0  0  0  0  0  0  0
   -5.3585    0.6661   -0.4896 C   0  0  0  0  0  0  0  0  0  0  0  0
   -4.3227    0.4488   -1.5185 N   0  0  0  0  0  0  0  0  0  0  0  0
   -4.3476    0.7045   -2.8986 C   0  0  0  0  0  0  0  0  0  0  0  0
   -5.7400    0.9744   -3.3917 C   0  0  0  0  0  0  0  0  0  0  0  0
   -3.0921   -0.1137   -0.9715 C   0  0  0  0  0  0  0  0  0  0  0  0
   -2.5752   -1.2490   -1.5726 C   0  0  0  0  0  0  0  0  0  0  0  0
   -1.4278   -1.8107   -1.0026 C   0  0  0  0  0  0  0  0  0  0  0  0
   -0.9047   -1.1821    0.1257 C   0  0  0  0  0  0  0  0  0  0  0  0
   -1.4257   -0.0271    0.7328 C   0  0  0  0  0  0  0  0  0  0  0  0
   -2.5865    0.4674    0.0824 C   0  0  0  0  0  0  0  0  0  0  0  0
    0.1568   -1.8377    0.8515 C   0  0  0  0  0  0  0  0  0  0  0  0
    0.2420   -3.1257    0.6525 O   0  0  0  0  0  0  0  0  0  0  0  0
    1.0682   -1.1986    1.7500 N   0  0  0  0  0  0  0  0  0  0  0  0
    1.9063   -2.2037    2.4125 C   0  0  0  0  0  0  0  0  0  0  0  0
    2.9005   -2.8527    1.7542 C   0  0  0  0  0  0  0  0  0  0  0  0
    3.4873   -3.9709    2.4659 C   0  0  0  0  0  0  0  0  0  0  0  0
    3.0451   -4.3021    3.7238 C   0  0  0  0  0  0  0  0  0  0  0  0
    2.0399   -3.6112    4.3601 C   0  0  0  0  0  0  0  0  0  0  0  0
    1.4827   -2.5677    3.6850 C   0  0  0  0  0  0  0  0  0  0  0  0
    0.4567   -1.8000    4.2196 O   0  0  0  0  0  0  0  0  0  0  0  0
    3.6531   -2.3952    0.6942 N   0  0  0  0  0  0  0  0  0  0  0  0
    4.3698   -1.9955   -0.3594 C   0  0  0  0  0  0  0  0  0  0  0  0
    4.5174   -2.5547   -1.4770 O   0  0  0  0  0  0  0  0  0  0  0  0
    5.1569   -0.6559   -0.2695 C   0  0  0  0  0  0  0  0  0  0  0  0
    5.9200   -0.4645    0.8393 C   0  0  0  0  0  0  0  0  0  0  0  0
    6.6604    0.7458    0.9391 C   0  0  0  0  0  0  0  0  0  0  0  0
    6.6002    1.6823   -0.0577 C   0  0  0  0  0  0  0  0  0  0  0  0
    5.8145    1.4610   -1.1711 C   0  0  0  0  0  0  0  0  0  0  0  0
    5.0812    0.2499   -1.2605 C   0  0  0  0  0  0  0  0  0  0  0  0
    7.3559    2.8859    0.0665 O   0  0  0  0  0  0  0  0  0  0  0  0
    7.2003    3.7798   -1.0111 C   0  0  0  0  0  0  0  0  0  0  0  0
   -4.4205    3.1688   -3.5802 H   0  0  0  0  0  0  0  0  0  0  0  0
   -5.9669    4.0439   -3.9543 H   0  0  0  0  0  0  0  0  0  0  0  0
   -5.4153    3.9341   -2.2668 H   0  0  0  0  0  0  0  0  0  0  0  0
   -7.3645    3.2106   -1.5456 H   0  0  0  0  0  0  0  0  0  0  0  0
   -7.6327    1.4333   -1.6426 H   0  0  0  0  0  0  0  0  0  0  0  0
   -5.0840    2.8104   -0.6397 H   0  0  0  0  0  0  0  0  0  0  0  0
   -6.4806    2.2267    0.3510 H   0  0  0  0  0  0  0  0  0  0  0  0
   -4.9494    0.4771    0.5400 H   0  0  0  0  0  0  0  0  0  0  0  0
   -6.1418   -0.1305   -0.6670 H   0  0  0  0  0  0  0  0  0  0  0  0
   -4.0344   -0.2510   -3.4618 H   0  0  0  0  0  0  0  0  0  0  0  0
   -3.6576    1.5174   -3.1392 H   0  0  0  0  0  0  0  0  0  0  0  0
   -5.7641    0.8840   -4.5012 H   0  0  0  0  0  0  0  0  0  0  0  0
   -6.4163    0.2044   -2.9789 H   0  0  0  0  0  0  0  0  0  0  0  0
   -3.0205   -1.7142   -2.4077 H   0  0  0  0  0  0  0  0  0  0  0  0
   -1.0045   -2.6848   -1.3988 H   0  0  0  0  0  0  0  0  0  0  0  0
   -1.0686    0.4352    1.5707 H   0  0  0  0  0  0  0  0  0  0  0  0
   -3.0048    1.3839    0.5912 H   0  0  0  0  0  0  0  0  0  0  0  0
    1.1218   -0.2287    1.8931 H   0  0  0  0  0  0  0  0  0  0  0  0
    4.2625   -4.5129    1.9774 H   0  0  0  0  0  0  0  0  0  0  0  0
    3.4869   -5.1541    4.2665 H   0  0  0  0  0  0  0  0  0  0  0  0
    1.6935   -3.8731    5.3347 H   0  0  0  0  0  0  0  0  0  0  0  0
    0.0409   -1.8388    5.1153 H   0  0  0  0  0  0  0  0  0  0  0  0
    3.2367   -3.5099   -0.0024 H   0  0  0  0  0  0  0  0  0  0  0  0
    5.9872   -1.2156    1.6478 H   0  0  0  0  0  0  0  0  0  0  0  0
    7.2793    0.9053    1.8029 H   0  0  0  0  0  0  0  0  0  0  0  0
    5.7563    2.2213   -1.9388 H   0  0  0  0  0  0  0  0  0  0  0  0
    4.4738    0.1122   -2.1304 H   0  0  0  0  0  0  0  0  0  0  0  0
    7.5124    3.3048   -1.9774 H   0  0  0  0  0  0  0  0  0  0  0  0
    6.1075    4.0286   -1.1199 H   0  0  0  0  0  0  0  0  0  0  0  0
    7.6672    4.7673   -0.8608 H   0  0  0  0  0  0  0  0  0  0  0  0
  1  2  1  0
  2  3  1  0
  3  4  1  0
  4  5  1  0
  5  6  1  0
  6  7  1  0
  7  8  1  0
  2  8  1  0
  6  9  1  0
  9 10  2  0
 10 11  1  0
 11 12  2  0
 12 13  1  0
 13 14  2  0
  9 14  1  0
 12 15  1  0
 15 16  2  0
 15 17  1  0
 17 18  1  0
 18 19  1  0
 19 20  2  0
 20 21  1  0
 21 22  2  0
 22 23  1  0
 18 23  2  0
 23 24  1  0
 19 25  1  0
 25 26  1  0
 26 27  2  0
 26 28  1  0
 28 29  2  0
 29 30  1  0
 30 31  2  0
 31 32  1  0
 32 33  2  0
 28 33  1  0
 31 34  1  0
 34 35  1  0
  1 36  1  0
  1 37  1  0
  1 38  1  0
  3 39  1  0
  3 40  1  0
  4 41  1  0
  4 42  1  0
  5 43  1  0
  5 44  1  0
  7 45  1  0
  7 46  1  0
  8 47  1  0
  8 48  1  0
 10 49  1  0
 11 50  1  0
 13 51  1  0
 14 52  1  0
 17 53  1  0
 20 54  1  0
 21 55  1  0
 22 56  1  0
 24 57  1  0
 25 58  1  0
 29 59  1  0
 30 60  1  0
 32 61  1  0
 33 62  1  0
 35 63  1  0
 35 64  1  0
 35 65  1  0
M  END

