347828702
     RDKit          3D

 53 54  0  0  1  0  0  0  0  0999 V2000
   -0.9446   -2.2608    0.2056 C   0  0  0  0  0  0  0  0  0  0  0  0
   -1.1319   -0.7396    0.1559 C   0  0  1  0  0  0  0  0  0  0  0  0
   -0.0306   -0.1157   -0.5994 C   0  0  0  0  0  0  0  0  0  0  0  0
   -0.3092    0.4943   -1.6684 O   0  0  0  0  0  0  0  0  0  0  0  0
    1.3260   -0.1684   -0.1815 N   0  0  0  0  0  0  0  0  0  0  0  0
    2.3726    0.4625   -0.9614 C   0  0  1  0  0  0  0  0  0  0  0  0
    3.0814    1.4531   -0.1314 C   0  0  0  0  0  0  0  0  0  0  0  0
    2.3994    2.6419   -0.0838 C   0  0  0  0  0  0  0  0  0  0  0  0
    2.8729    3.7339    0.6416 C   0  0  0  0  0  0  0  0  0  0  0  0
    4.0514    3.5919    1.3158 C   0  0  0  0  0  0  0  0  0  0  0  0
    4.7328    2.3967    1.2654 C   0  0  0  0  0  0  0  0  0  0  0  0
    4.2652    1.2916    0.5383 C   0  0  0  0  0  0  0  0  0  0  0  0
    5.2209    0.2013    0.6992 C   0  0  0  0  0  0  0  0  0  0  0  0
    4.6712   -1.1694    0.5411 C   0  0  0  0  0  0  0  0  0  0  0  0
    4.2128   -1.4257   -0.8309 N   0  0  0  0  0  0  0  0  0  0  0  0
    3.3067   -0.5761   -1.5243 C   0  0  0  0  0  0  0  0  0  0  0  0
    3.3273   -0.7557   -2.7663 O   0  0  0  0  0  0  0  0  0  0  0  0
    4.7236   -2.6110   -1.4924 C   0  0  0  0  0  0  0  0  0  0  0  0
   -2.4004   -0.5206   -0.5051 N   0  0  0  0  0  0  0  0  0  0  0  0
   -3.5074    0.0804    0.1604 C   0  0  0  0  0  0  0  0  0  0  0  0
   -3.3457    0.4200    1.3604 O   0  0  0  0  0  0  0  0  0  0  0  0
   -4.7953    0.2936   -0.5396 C   0  0  2  0  0  0  0  0  0  0  0  0
   -5.9411   -0.3901    0.1935 C   0  0  0  0  0  0  0  0  0  0  0  0
   -7.2343   -0.1481   -0.5520 C   0  0  0  0  0  0  0  0  0  0  0  0
   -6.0842    0.2100    1.5699 C   0  0  0  0  0  0  0  0  0  0  0  0
   -4.7057   -0.1660   -1.8477 O   0  0  0  0  0  0  0  0  0  0  0  0
   -0.2659   -2.5361   -0.6293 H   0  0  0  0  0  0  0  0  0  0  0  0
   -1.9360   -2.7764    0.1299 H   0  0  0  0  0  0  0  0  0  0  0  0
   -0.5069   -2.5627    1.1957 H   0  0  0  0  0  0  0  0  0  0  0  0
   -1.1871   -0.3649    1.2018 H   0  0  0  0  0  0  0  0  0  0  0  0
    1.5643   -0.6818    0.7190 H   0  0  0  0  0  0  0  0  0  0  0  0
    1.8867    0.9198   -1.8501 H   0  0  0  0  0  0  0  0  0  0  0  0
    1.4585    2.7882   -0.6088 H   0  0  0  0  0  0  0  0  0  0  0  0
    2.3381    4.6730    0.6818 H   0  0  0  0  0  0  0  0  0  0  0  0
    4.4364    4.4446    1.8923 H   0  0  0  0  0  0  0  0  0  0  0  0
    5.6601    2.3308    1.8143 H   0  0  0  0  0  0  0  0  0  0  0  0
    6.0206    0.3413   -0.0861 H   0  0  0  0  0  0  0  0  0  0  0  0
    5.7686    0.2504    1.6654 H   0  0  0  0  0  0  0  0  0  0  0  0
    3.8226   -1.2989    1.2442 H   0  0  0  0  0  0  0  0  0  0  0  0
    5.4288   -1.9192    0.8151 H   0  0  0  0  0  0  0  0  0  0  0  0
    5.4413   -2.2369   -2.2796 H   0  0  0  0  0  0  0  0  0  0  0  0
    3.9266   -3.2056   -1.9796 H   0  0  0  0  0  0  0  0  0  0  0  0
    5.3263   -3.1703   -0.7715 H   0  0  0  0  0  0  0  0  0  0  0  0
   -2.4582   -0.8314   -1.5091 H   0  0  0  0  0  0  0  0  0  0  0  0
   -5.0261    1.3830   -0.5511 H   0  0  0  0  0  0  0  0  0  0  0  0
   -5.7590   -1.4790    0.2196 H   0  0  0  0  0  0  0  0  0  0  0  0
   -7.2181   -0.7167   -1.5238 H   0  0  0  0  0  0  0  0  0  0  0  0
   -7.3260    0.9509   -0.7342 H   0  0  0  0  0  0  0  0  0  0  0  0
   -8.0761   -0.4976    0.0816 H   0  0  0  0  0  0  0  0  0  0  0  0
   -5.5375   -0.4557    2.2917 H   0  0  0  0  0  0  0  0  0  0  0  0
   -7.1572    0.2714    1.8537 H   0  0  0  0  0  0  0  0  0  0  0  0
   -5.5946    1.1979    1.5787 H   0  0  0  0  0  0  0  0  0  0  0  0
   -5.1639   -1.0422   -1.9261 H   0  0  0  0  0  0  0  0  0  0  0  0
  2  1  1  0
  2  3  1  0
  3  4  2  0
  3  5  1  0
  6  5  1  0
  6  7  1  0
  7  8  2  0
  8  9  1  0
  9 10  2  0
 10 11  1  0
 11 12  2  0
  7 12  1  0
 12 13  1  0
 13 14  1  0
 14 15  1  0
 15 16  1  0
  6 16  1  0
 16 17  2  0
 15 18  1  0
  2 19  1  0
 19 20  1  0
 20 21  2  0
 20 22  1  0
 22 23  1  0
 23 24  1  0
 23 25  1  0
 22 26  1  0
  1 27  1  0
  1 28  1  0
  1 29  1  0
  2 30  1  1
  5 31  1  0
  6 32  1  6
  8 33  1  0
  9 34  1  0
 10 35  1  0
 11 36  1  0
 13 37  1  0
 13 38  1  0
 14 39  1  0
 14 40  1  0
 18 41  1  0
 18 42  1  0
 18 43  1  0
 19 44  1  0
 22 45  1  6
 23 46  1  0
 24 47  1  0
 24 48  1  0
 24 49  1  0
 25 50  1  0
 25 51  1  0
 25 52  1  0
 26 53  1  0
M  END

