347828524
     RDKit          3D

 67 70  0  0  1  0  0  0  0  0999 V2000
   -8.4045    2.0674    0.5882 C   0  0  0  0  0  0  0  0  0  0  0  0
   -8.3418    0.5828    0.2119 C   0  0  2  0  0  0  0  0  0  0  0  0
   -7.3570   -0.0642    1.1961 C   0  0  0  0  0  0  0  0  0  0  0  0
   -6.4042   -0.7732    0.3793 N   0  0  0  0  0  0  0  0  0  0  0  0
   -6.9467   -1.6960   -0.5923 C   0  0  0  0  0  0  0  0  0  0  0  0
   -7.7402   -0.8714   -1.6015 C   0  0  1  0  0  0  0  0  0  0  0  0
   -7.8578    0.5028   -1.1577 N   0  0  0  0  0  0  0  0  0  0  0  0
   -7.0192   -0.8781   -2.9244 C   0  0  0  0  0  0  0  0  0  0  0  0
   -5.0206   -0.5546    0.5696 C   0  0  0  0  0  0  0  0  0  0  0  0
   -4.0891   -0.8762   -0.4267 C   0  0  0  0  0  0  0  0  0  0  0  0
   -2.7369   -0.6852   -0.2479 C   0  0  0  0  0  0  0  0  0  0  0  0
   -2.2248   -0.1579    0.9426 C   0  0  0  0  0  0  0  0  0  0  0  0
   -3.1301    0.1552    1.9117 C   0  0  0  0  0  0  0  0  0  0  0  0
   -4.5088   -0.0369    1.7367 C   0  0  0  0  0  0  0  0  0  0  0  0
   -0.7723    0.0202    1.0689 C   0  0  0  0  0  0  0  0  0  0  0  0
   -0.0227   -0.2131    0.0704 O   0  0  0  0  0  0  0  0  0  0  0  0
   -0.2197    0.4465    2.2940 N   0  0  0  0  0  0  0  0  0  0  0  0
    1.1809    0.6386    2.5027 C   0  0  0  0  0  0  0  0  0  0  0  0
    2.2117    0.4619    1.6309 C   0  0  0  0  0  0  0  0  0  0  0  0
    3.4071    0.7751    2.2927 C   0  0  0  0  0  0  0  0  0  0  0  0
    3.0614    1.1242    3.5218 N   0  0  0  0  0  0  0  0  0  0  0  0
    1.7562    1.0531    3.6724 N   0  0  0  0  0  0  0  0  0  0  0  0
    4.7374    0.6956    1.6486 C   0  0  0  0  0  0  0  0  0  0  0  0
    4.6200    0.2448    0.2079 C   0  0  0  0  0  0  0  0  0  0  0  0
    5.9689    0.1758   -0.4094 C   0  0  0  0  0  0  0  0  0  0  0  0
    6.7169   -0.9764   -0.3601 C   0  0  0  0  0  0  0  0  0  0  0  0
    7.9710   -1.0828   -0.9239 C   0  0  0  0  0  0  0  0  0  0  0  0
    8.5001    0.0130   -1.5658 C   0  0  0  0  0  0  0  0  0  0  0  0
    7.7706    1.1999   -1.6363 C   0  0  0  0  0  0  0  0  0  0  0  0
    6.5092    1.2712   -1.0567 C   0  0  0  0  0  0  0  0  0  0  0  0
    8.3025    2.3051   -2.2833 O   0  0  0  0  0  0  0  0  0  0  0  0
    9.5623    2.2898   -2.8845 C   0  0  0  0  0  0  0  0  0  0  0  0
    8.7290   -2.2452   -0.8749 O   0  0  0  0  0  0  0  0  0  0  0  0
    8.1425   -3.3638   -0.1972 C   0  0  0  0  0  0  0  0  0  0  0  0
   -8.0613    2.2356    1.6252 H   0  0  0  0  0  0  0  0  0  0  0  0
   -7.7070    2.6340   -0.0736 H   0  0  0  0  0  0  0  0  0  0  0  0
   -9.4488    2.4259    0.5277 H   0  0  0  0  0  0  0  0  0  0  0  0
   -9.3121    0.0913    0.3564 H   0  0  0  0  0  0  0  0  0  0  0  0
   -7.8711   -0.8337    1.8229 H   0  0  0  0  0  0  0  0  0  0  0  0
   -6.9387    0.6708    1.8819 H   0  0  0  0  0  0  0  0  0  0  0  0
   -6.1682   -2.2974   -1.0581 H   0  0  0  0  0  0  0  0  0  0  0  0
   -7.6444   -2.4265   -0.0767 H   0  0  0  0  0  0  0  0  0  0  0  0
   -8.7452   -1.3283   -1.7176 H   0  0  0  0  0  0  0  0  0  0  0  0
   -8.5960    0.9465   -1.7434 H   0  0  0  0  0  0  0  0  0  0  0  0
   -7.7717   -0.6013   -3.7141 H   0  0  0  0  0  0  0  0  0  0  0  0
   -6.1459   -0.2195   -2.9301 H   0  0  0  0  0  0  0  0  0  0  0  0
   -6.6635   -1.9194   -3.1042 H   0  0  0  0  0  0  0  0  0  0  0  0
   -4.4832   -1.2803   -1.3536 H   0  0  0  0  0  0  0  0  0  0  0  0
   -2.0561   -0.9472   -1.0398 H   0  0  0  0  0  0  0  0  0  0  0  0
   -2.7711    0.5699    2.8534 H   0  0  0  0  0  0  0  0  0  0  0  0
   -5.1434    0.2359    2.5645 H   0  0  0  0  0  0  0  0  0  0  0  0
   -0.8239    0.6471    3.1375 H   0  0  0  0  0  0  0  0  0  0  0  0
    2.1383    0.1337    0.5926 H   0  0  0  0  0  0  0  0  0  0  0  0
    3.7816    1.4145    4.2454 H   0  0  0  0  0  0  0  0  0  0  0  0
    5.3529   -0.0956    2.1602 H   0  0  0  0  0  0  0  0  0  0  0  0
    5.3268    1.6197    1.7132 H   0  0  0  0  0  0  0  0  0  0  0  0
    4.0615   -0.7076    0.1594 H   0  0  0  0  0  0  0  0  0  0  0  0
    4.0129    1.0280   -0.3025 H   0  0  0  0  0  0  0  0  0  0  0  0
    6.2993   -1.8213    0.1392 H   0  0  0  0  0  0  0  0  0  0  0  0
    9.4737    0.0135   -2.0343 H   0  0  0  0  0  0  0  0  0  0  0  0
    5.9245    2.1815   -1.0992 H   0  0  0  0  0  0  0  0  0  0  0  0
    9.5283    1.7949   -3.8984 H   0  0  0  0  0  0  0  0  0  0  0  0
    9.8644    3.3451   -3.1125 H   0  0  0  0  0  0  0  0  0  0  0  0
   10.3478    1.8429   -2.2548 H   0  0  0  0  0  0  0  0  0  0  0  0
    8.7773   -4.2531   -0.2323 H   0  0  0  0  0  0  0  0  0  0  0  0
    7.9954   -3.0878    0.8659 H   0  0  0  0  0  0  0  0  0  0  0  0
    7.1157   -3.5601   -0.6234 H   0  0  0  0  0  0  0  0  0  0  0  0
  2  1  1  0
  2  3  1  0
  3  4  1  0
  4  5  1  0
  5  6  1  0
  6  7  1  0
  2  7  1  0
  6  8  1  0
  4  9  1  0
  9 10  2  0
 10 11  1  0
 11 12  2  0
 12 13  1  0
 13 14  2  0
  9 14  1  0
 12 15  1  0
 15 16  2  0
 15 17  1  0
 17 18  1  0
 18 19  1  0
 19 20  2  0
 20 21  1  0
 21 22  1  0
 18 22  2  0
 20 23  1  0
 23 24  1  0
 24 25  1  0
 25 26  2  0
 26 27  1  0
 27 28  2  0
 28 29  1  0
 29 30  2  0
 25 30  1  0
 29 31  1  0
 31 32  1  0
 27 33  1  0
 33 34  1  0
  1 35  1  0
  1 36  1  0
  1 37  1  0
  2 38  1  6
  3 39  1  0
  3 40  1  0
  5 41  1  0
  5 42  1  0
  6 43  1  6
  7 44  1  0
  8 45  1  0
  8 46  1  0
  8 47  1  0
 10 48  1  0
 11 49  1  0
 13 50  1  0
 14 51  1  0
 17 52  1  0
 19 53  1  0
 21 54  1  0
 23 55  1  0
 23 56  1  0
 24 57  1  0
 24 58  1  0
 26 59  1  0
 28 60  1  0
 30 61  1  0
 32 62  1  0
 32 63  1  0
 32 64  1  0
 34 65  1  0
 34 66  1  0
 34 67  1  0
M  END

