347828409
     RDKit          3D

 62 66  0  0  0  0  0  0  0  0999 V2000
   -6.5092   -4.2576    0.0953 C   0  0  0  0  0  0  0  0  0  0  0  0
   -6.1262   -2.8253    0.0463 C   0  0  0  0  0  0  0  0  0  0  0  0
   -4.9088   -2.2799    0.0673 N   0  0  0  0  0  0  0  0  0  0  0  0
   -4.9887   -0.9092    0.0032 C   0  0  0  0  0  0  0  0  0  0  0  0
   -6.3043   -0.6408   -0.0572 N   0  0  0  0  0  0  0  0  0  0  0  0
   -6.9736   -1.8097   -0.0301 N   0  0  0  0  0  0  0  0  0  0  0  0
   -6.9589    0.6278   -0.1357 C   0  0  0  0  0  0  0  0  0  0  0  0
   -6.9066    1.2812   -1.4731 C   0  0  0  0  0  0  0  0  0  0  0  0
   -8.4574    0.3931    0.1601 C   0  0  0  0  0  0  0  0  0  0  0  0
   -3.8553   -0.0027    0.0073 C   0  0  0  0  0  0  0  0  0  0  0  0
   -3.7786    1.3498   -0.0566 C   0  0  0  0  0  0  0  0  0  0  0  0
   -2.4513    1.6904   -0.0213 N   0  0  0  0  0  0  0  0  0  0  0  0
   -1.7209    0.5677    0.0629 C   0  0  0  0  0  0  0  0  0  0  0  0
   -2.5722   -0.4542    0.0799 N   0  0  0  0  0  0  0  0  0  0  0  0
   -0.2577    0.4696    0.1275 C   0  0  0  0  0  0  0  0  0  0  0  0
    0.1411   -0.7732    0.5672 C   0  0  0  0  0  0  0  0  0  0  0  0
    1.4784   -1.1062    0.7120 C   0  0  0  0  0  0  0  0  0  0  0  0
    2.4219   -0.1558    0.4033 C   0  0  0  0  0  0  0  0  0  0  0  0
    2.0178    1.1033   -0.0422 C   0  0  0  0  0  0  0  0  0  0  0  0
    0.6881    1.4182   -0.1807 C   0  0  0  0  0  0  0  0  0  0  0  0
    0.4042    2.6992   -0.6313 O   0  0  0  0  0  0  0  0  0  0  0  0
   -0.8362    3.2757   -1.0261 C   0  0  0  0  0  0  0  0  0  0  0  0
   -1.9506    3.0433   -0.0655 C   0  0  0  0  0  0  0  0  0  0  0  0
    3.8327   -0.4853    0.5501 C   0  0  0  0  0  0  0  0  0  0  0  0
    4.3540   -1.3396    1.4841 C   0  0  0  0  0  0  0  0  0  0  0  0
    5.6833   -1.3925    1.3120 N   0  0  0  0  0  0  0  0  0  0  0  0
    6.0364   -0.5974    0.2938 N   0  0  0  0  0  0  0  0  0  0  0  0
    4.9188   -0.0354   -0.1833 C   0  0  0  0  0  0  0  0  0  0  0  0
    7.3820   -0.4023   -0.1804 C   0  0  0  0  0  0  0  0  0  0  0  0
    7.6505    1.0718   -0.2720 C   0  0  0  0  0  0  0  0  0  0  0  0
    7.5590   -0.9756   -1.5736 C   0  0  0  0  0  0  0  0  0  0  0  0
    8.3589   -1.0539    0.7176 C   0  0  0  0  0  0  0  0  0  0  0  0
    7.9252   -1.6731    1.7405 O   0  0  0  0  0  0  0  0  0  0  0  0
    9.7492   -1.0349    0.5147 N   0  0  0  0  0  0  0  0  0  0  0  0
   -5.6714   -4.8757   -0.3266 H   0  0  0  0  0  0  0  0  0  0  0  0
   -6.6110   -4.5840    1.1620 H   0  0  0  0  0  0  0  0  0  0  0  0
   -7.4675   -4.4539   -0.4091 H   0  0  0  0  0  0  0  0  0  0  0  0
   -6.5868    1.3724    0.6294 H   0  0  0  0  0  0  0  0  0  0  0  0
   -7.8220    1.0370   -2.0456 H   0  0  0  0  0  0  0  0  0  0  0  0
   -6.9032    2.3967   -1.3509 H   0  0  0  0  0  0  0  0  0  0  0  0
   -6.0594    0.9425   -2.1038 H   0  0  0  0  0  0  0  0  0  0  0  0
   -8.8649    1.2841    0.6389 H   0  0  0  0  0  0  0  0  0  0  0  0
   -8.5535   -0.5382    0.7636 H   0  0  0  0  0  0  0  0  0  0  0  0
   -8.9437    0.1772   -0.8124 H   0  0  0  0  0  0  0  0  0  0  0  0
   -4.5477    2.0686   -0.1237 H   0  0  0  0  0  0  0  0  0  0  0  0
   -0.6124   -1.5113    0.8068 H   0  0  0  0  0  0  0  0  0  0  0  0
    1.8176   -2.0755    1.0560 H   0  0  0  0  0  0  0  0  0  0  0  0
    2.7599    1.8276   -0.2776 H   0  0  0  0  0  0  0  0  0  0  0  0
   -0.6817    4.3559   -1.1294 H   0  0  0  0  0  0  0  0  0  0  0  0
   -1.1566    2.8683   -2.0280 H   0  0  0  0  0  0  0  0  0  0  0  0
   -1.5866    3.3484    0.9590 H   0  0  0  0  0  0  0  0  0  0  0  0
   -2.7595    3.7676   -0.3003 H   0  0  0  0  0  0  0  0  0  0  0  0
    3.7466   -1.8638    2.2223 H   0  0  0  0  0  0  0  0  0  0  0  0
    4.8887    0.6496   -1.0010 H   0  0  0  0  0  0  0  0  0  0  0  0
    6.7418    1.5480   -0.7251 H   0  0  0  0  0  0  0  0  0  0  0  0
    8.4915    1.2815   -0.9859 H   0  0  0  0  0  0  0  0  0  0  0  0
    7.8768    1.5226    0.7148 H   0  0  0  0  0  0  0  0  0  0  0  0
    8.2170   -0.3299   -2.1982 H   0  0  0  0  0  0  0  0  0  0  0  0
    8.0439   -1.9658   -1.5427 H   0  0  0  0  0  0  0  0  0  0  0  0
    6.5773   -1.0041   -2.0519 H   0  0  0  0  0  0  0  0  0  0  0  0
   10.2405   -1.4708   -0.3068 H   0  0  0  0  0  0  0  0  0  0  0  0
   10.3811   -0.5613    1.2110 H   0  0  0  0  0  0  0  0  0  0  0  0
  1  2  1  0
  2  3  1  0
  3  4  2  0
  4  5  1  0
  5  6  1  0
  2  6  2  0
  5  7  1  0
  7  8  1  0
  7  9  1  0
  4 10  1  0
 10 11  2  0
 11 12  1  0
 12 13  1  0
 13 14  2  0
 10 14  1  0
 13 15  1  0
 15 16  2  0
 16 17  1  0
 17 18  2  0
 18 19  1  0
 19 20  2  0
 15 20  1  0
 20 21  1  0
 21 22  1  0
 22 23  1  0
 12 23  1  0
 18 24  1  0
 24 25  1  0
 25 26  2  0
 26 27  1  0
 27 28  1  0
 24 28  2  0
 27 29  1  0
 29 30  1  0
 29 31  1  0
 29 32  1  0
 32 33  2  0
 32 34  1  0
  1 35  1  0
  1 36  1  0
  1 37  1  0
  7 38  1  0
  8 39  1  0
  8 40  1  0
  8 41  1  0
  9 42  1  0
  9 43  1  0
  9 44  1  0
 11 45  1  0
 16 46  1  0
 17 47  1  0
 19 48  1  0
 22 49  1  0
 22 50  1  0
 23 51  1  0
 23 52  1  0
 25 53  1  0
 28 54  1  0
 30 55  1  0
 30 56  1  0
 30 57  1  0
 31 58  1  0
 31 59  1  0
 31 60  1  0
 34 61  1  0
 34 62  1  0
M  END

