347829051
     RDKit          3D

 51 55  0  0  0  0  0  0  0  0999 V2000
   -7.2564   -2.8413    0.0584 C   0  0  0  0  0  0  0  0  0  0  0  0
   -6.2023   -3.7225    0.0296 C   0  0  0  0  0  0  0  0  0  0  0  0
   -4.8869   -3.3100    0.0146 C   0  0  0  0  0  0  0  0  0  0  0  0
   -4.5921   -1.9583    0.0288 C   0  0  0  0  0  0  0  0  0  0  0  0
   -5.6214   -1.0520    0.0575 C   0  0  0  0  0  0  0  0  0  0  0  0
   -6.9501   -1.4980    0.0722 C   0  0  0  0  0  0  0  0  0  0  0  0
   -3.2230   -1.5129    0.0135 C   0  0  0  0  0  0  0  0  0  0  0  0
   -2.9151   -0.1809    0.0271 C   0  0  0  0  0  0  0  0  0  0  0  0
   -1.5474    0.1692    0.0106 C   0  0  0  0  0  0  0  0  0  0  0  0
   -0.5771   -0.7793   -0.0183 C   0  0  0  0  0  0  0  0  0  0  0  0
   -0.9727   -2.0674   -0.0297 N   0  0  0  0  0  0  0  0  0  0  0  0
   -2.2398   -2.4262   -0.0147 N   0  0  0  0  0  0  0  0  0  0  0  0
    0.7875   -0.4439   -0.0489 N   0  0  0  0  0  0  0  0  0  0  0  0
    1.3938    0.3517   -1.1053 C   0  0  0  0  0  0  0  0  0  0  0  0
    2.6336    1.0230   -0.5942 C   0  0  0  0  0  0  0  0  0  0  0  0
    3.5650    0.0712   -0.0137 N   0  0  0  0  0  0  0  0  0  0  0  0
    3.0285   -1.2107    0.3964 C   0  0  0  0  0  0  0  0  0  0  0  0
    1.6579   -0.9173    1.0034 C   0  0  0  0  0  0  0  0  0  0  0  0
    4.9442    0.3677    0.1517 C   0  0  0  0  0  0  0  0  0  0  0  0
    5.7660   -0.5299    0.6870 N   0  0  0  0  0  0  0  0  0  0  0  0
    7.0879   -0.3298    0.8798 C   0  0  0  0  0  0  0  0  0  0  0  0
    7.6275    0.8856    0.4975 C   0  0  0  0  0  0  0  0  0  0  0  0
    6.7685    1.8204   -0.0607 C   0  0  0  0  0  0  0  0  0  0  0  0
    5.4512    1.5462   -0.2224 N   0  0  0  0  0  0  0  0  0  0  0  0
   -1.1997    1.5827    0.0399 C   0  0  0  0  0  0  0  0  0  0  0  0
   -0.3125    2.1407    0.9003 C   0  0  0  0  0  0  0  0  0  0  0  0
   -0.0462    3.4886    0.8449 C   0  0  0  0  0  0  0  0  0  0  0  0
   -0.6682    4.2366   -0.0610 N   0  0  0  0  0  0  0  0  0  0  0  0
   -1.5589    3.7505   -0.9442 C   0  0  0  0  0  0  0  0  0  0  0  0
   -1.8337    2.4039   -0.8988 C   0  0  0  0  0  0  0  0  0  0  0  0
   -8.2899   -3.1369    0.0705 H   0  0  0  0  0  0  0  0  0  0  0  0
   -6.4616   -4.7875    0.0189 H   0  0  0  0  0  0  0  0  0  0  0  0
   -4.0947   -4.0574   -0.0082 H   0  0  0  0  0  0  0  0  0  0  0  0
   -5.5032    0.0200    0.0706 H   0  0  0  0  0  0  0  0  0  0  0  0
   -7.7138   -0.7386    0.0948 H   0  0  0  0  0  0  0  0  0  0  0  0
   -3.6415    0.6233    0.0497 H   0  0  0  0  0  0  0  0  0  0  0  0
    0.7297    1.0842   -1.5574 H   0  0  0  0  0  0  0  0  0  0  0  0
    1.7444   -0.3784   -1.8931 H   0  0  0  0  0  0  0  0  0  0  0  0
    3.1402    1.4841   -1.4799 H   0  0  0  0  0  0  0  0  0  0  0  0
    2.4591    1.8202    0.1368 H   0  0  0  0  0  0  0  0  0  0  0  0
    2.8852   -1.8279   -0.5085 H   0  0  0  0  0  0  0  0  0  0  0  0
    3.6443   -1.6769    1.1738 H   0  0  0  0  0  0  0  0  0  0  0  0
    1.3112   -1.8804    1.4352 H   0  0  0  0  0  0  0  0  0  0  0  0
    1.7757   -0.2202    1.8501 H   0  0  0  0  0  0  0  0  0  0  0  0
    7.7339   -1.0809    1.3191 H   0  0  0  0  0  0  0  0  0  0  0  0
    8.6826    1.0703    0.6411 H   0  0  0  0  0  0  0  0  0  0  0  0
    7.2123    2.7596   -0.3506 H   0  0  0  0  0  0  0  0  0  0  0  0
    0.1836    1.5108    1.6386 H   0  0  0  0  0  0  0  0  0  0  0  0
    0.6811    3.9214    1.5565 H   0  0  0  0  0  0  0  0  0  0  0  0
   -2.0369    4.4239   -1.6662 H   0  0  0  0  0  0  0  0  0  0  0  0
   -2.5498    2.0096   -1.6080 H   0  0  0  0  0  0  0  0  0  0  0  0
  1  2  2  0
  2  3  1  0
  3  4  2  0
  4  5  1  0
  5  6  2  0
  1  6  1  0
  4  7  1  0
  7  8  2  0
  8  9  1  0
  9 10  2  0
 10 11  1  0
 11 12  2  0
  7 12  1  0
 10 13  1  0
 13 14  1  0
 14 15  1  0
 15 16  1  0
 16 17  1  0
 17 18  1  0
 13 18  1  0
 16 19  1  0
 19 20  2  0
 20 21  1  0
 21 22  2  0
 22 23  1  0
 23 24  2  0
 19 24  1  0
  9 25  1  0
 25 26  2  0
 26 27  1  0
 27 28  2  0
 28 29  1  0
 29 30  2  0
 25 30  1  0
  1 31  1  0
  2 32  1  0
  3 33  1  0
  5 34  1  0
  6 35  1  0
  8 36  1  0
 14 37  1  0
 14 38  1  0
 15 39  1  0
 15 40  1  0
 17 41  1  0
 17 42  1  0
 18 43  1  0
 18 44  1  0
 21 45  1  0
 22 46  1  0
 23 47  1  0
 26 48  1  0
 27 49  1  0
 29 50  1  0
 30 51  1  0
M  END

