347828438
     RDKit          3D

 84 88  0  0  0  0  0  0  0  0999 V2000
   -7.8430    0.4385   -0.7839 C   0  0  0  0  0  0  0  0  0  0  0  0
   -7.2099    0.0278   -2.1061 C   0  0  0  0  0  0  0  0  0  0  0  0
   -5.8696    0.6590   -2.1696 C   0  0  0  0  0  0  0  0  0  0  0  0
   -4.8177    0.1593   -1.4297 C   0  0  0  0  0  0  0  0  0  0  0  0
   -3.6214    0.7536   -1.5176 N   0  0  0  0  0  0  0  0  0  0  0  0
   -3.3956    1.8258   -2.2992 C   0  0  0  0  0  0  0  0  0  0  0  0
   -4.4288    2.3327   -3.0378 C   0  0  0  0  0  0  0  0  0  0  0  0
   -5.6511    1.7233   -2.9473 N   0  0  0  0  0  0  0  0  0  0  0  0
   -4.3265    3.4556   -3.9228 C   0  0  0  0  0  0  0  0  0  0  0  0
   -3.2702    4.0831   -4.1167 O   0  0  0  0  0  0  0  0  0  0  0  0
   -5.4860    3.8944   -4.6291 N   0  0  0  0  0  0  0  0  0  0  0  0
   -2.1153    2.4232   -2.2783 N   0  0  0  0  0  0  0  0  0  0  0  0
   -1.0360    1.8191   -1.5498 C   0  0  0  0  0  0  0  0  0  0  0  0
   -0.1220    2.6698   -0.9288 C   0  0  0  0  0  0  0  0  0  0  0  0
    0.9362    2.0822   -0.2776 C   0  0  0  0  0  0  0  0  0  0  0  0
    1.1272    0.7236   -0.2144 C   0  0  0  0  0  0  0  0  0  0  0  0
    0.1810   -0.0857   -0.8544 C   0  0  0  0  0  0  0  0  0  0  0  0
   -0.8860    0.4582   -1.5129 C   0  0  0  0  0  0  0  0  0  0  0  0
    0.4230   -1.4396   -0.7597 O   0  0  0  0  0  0  0  0  0  0  0  0
   -0.3303   -2.4743   -1.2928 C   0  0  0  0  0  0  0  0  0  0  0  0
    2.2388    0.1518    0.4691 N   0  0  0  0  0  0  0  0  0  0  0  0
    3.1478   -0.6478   -0.2812 C   0  0  0  0  0  0  0  0  0  0  0  0
    4.5414   -0.6920    0.2850 C   0  0  0  0  0  0  0  0  0  0  0  0
    4.5425   -0.6190    1.7932 C   0  0  0  0  0  0  0  0  0  0  0  0
    3.8321    0.6536    2.1767 C   0  0  0  0  0  0  0  0  0  0  0  0
    2.3551    0.4289    1.8834 C   0  0  0  0  0  0  0  0  0  0  0  0
    5.8101   -0.6926    2.3872 N   0  0  0  0  0  0  0  0  0  0  0  0
    6.5729   -1.8660    2.2103 C   0  0  0  0  0  0  0  0  0  0  0  0
    7.9772   -1.6118    1.6572 C   0  0  0  0  0  0  0  0  0  0  0  0
    7.9228   -0.4088    0.8889 N   0  0  0  0  0  0  0  0  0  0  0  0
    7.6338    0.7811    1.6517 C   0  0  0  0  0  0  0  0  0  0  0  0
    6.5155    0.5146    2.6124 C   0  0  0  0  0  0  0  0  0  0  0  0
    8.9912   -0.2313   -0.0476 C   0  0  0  0  0  0  0  0  0  0  0  0
   -5.0528   -0.9569   -0.5958 N   0  0  0  0  0  0  0  0  0  0  0  0
   -4.0550   -1.5741    0.2411 C   0  0  0  0  0  0  0  0  0  0  0  0
   -3.4967   -0.5927    1.2544 C   0  0  0  0  0  0  0  0  0  0  0  0
   -4.5251   -0.2790    2.3278 C   0  0  0  0  0  0  0  0  0  0  0  0
   -4.9848   -1.4387    2.9473 O   0  0  0  0  0  0  0  0  0  0  0  0
   -5.5932   -2.3093    2.0653 C   0  0  0  0  0  0  0  0  0  0  0  0
   -4.6293   -2.7686    0.9754 C   0  0  0  0  0  0  0  0  0  0  0  0
   -8.5263    1.3065   -0.8977 H   0  0  0  0  0  0  0  0  0  0  0  0
   -8.3525   -0.4381   -0.3065 H   0  0  0  0  0  0  0  0  0  0  0  0
   -7.0530    0.7676   -0.0726 H   0  0  0  0  0  0  0  0  0  0  0  0
   -7.8745    0.4218   -2.9073 H   0  0  0  0  0  0  0  0  0  0  0  0
   -7.1431   -1.0697   -2.2178 H   0  0  0  0  0  0  0  0  0  0  0  0
   -5.7736    4.8891   -4.5853 H   0  0  0  0  0  0  0  0  0  0  0  0
   -6.0233    3.2128   -5.1742 H   0  0  0  0  0  0  0  0  0  0  0  0
   -1.8532    3.3105   -2.7584 H   0  0  0  0  0  0  0  0  0  0  0  0
   -0.2263    3.7553   -0.9463 H   0  0  0  0  0  0  0  0  0  0  0  0
    1.7014    2.6905    0.2366 H   0  0  0  0  0  0  0  0  0  0  0  0
   -1.5819   -0.1886   -1.9999 H   0  0  0  0  0  0  0  0  0  0  0  0
   -0.4885   -3.2190   -0.4574 H   0  0  0  0  0  0  0  0  0  0  0  0
   -1.2869   -2.1546   -1.7271 H   0  0  0  0  0  0  0  0  0  0  0  0
    0.3119   -2.9896   -2.0576 H   0  0  0  0  0  0  0  0  0  0  0  0
    2.7644   -1.7102   -0.2290 H   0  0  0  0  0  0  0  0  0  0  0  0
    3.1288   -0.3200   -1.3380 H   0  0  0  0  0  0  0  0  0  0  0  0
    5.0544   -1.6372    0.0064 H   0  0  0  0  0  0  0  0  0  0  0  0
    5.1197    0.1182   -0.2010 H   0  0  0  0  0  0  0  0  0  0  0  0
    3.9049   -1.4605    2.1423 H   0  0  0  0  0  0  0  0  0  0  0  0
    3.9550    0.9028    3.2452 H   0  0  0  0  0  0  0  0  0  0  0  0
    4.1272    1.5090    1.5082 H   0  0  0  0  0  0  0  0  0  0  0  0
    1.7661    1.3061    2.1945 H   0  0  0  0  0  0  0  0  0  0  0  0
    1.9626   -0.4565    2.4470 H   0  0  0  0  0  0  0  0  0  0  0  0
    6.7386   -2.3250    3.2251 H   0  0  0  0  0  0  0  0  0  0  0  0
    6.1304   -2.6237    1.5450 H   0  0  0  0  0  0  0  0  0  0  0  0
    8.7117   -1.5134    2.4970 H   0  0  0  0  0  0  0  0  0  0  0  0
    8.3241   -2.4247    1.0149 H   0  0  0  0  0  0  0  0  0  0  0  0
    7.3323    1.5623    0.9306 H   0  0  0  0  0  0  0  0  0  0  0  0
    8.5147    1.1741    2.1924 H   0  0  0  0  0  0  0  0  0  0  0  0
    6.9512    0.4729    3.6544 H   0  0  0  0  0  0  0  0  0  0  0  0
    5.8408    1.3692    2.6063 H   0  0  0  0  0  0  0  0  0  0  0  0
    9.2697    0.8579   -0.0467 H   0  0  0  0  0  0  0  0  0  0  0  0
    9.8694   -0.8701    0.1430 H   0  0  0  0  0  0  0  0  0  0  0  0
    8.5767   -0.4209   -1.0650 H   0  0  0  0  0  0  0  0  0  0  0  0
   -6.0057   -1.3718   -0.5696 H   0  0  0  0  0  0  0  0  0  0  0  0
   -3.2246   -1.9083   -0.3971 H   0  0  0  0  0  0  0  0  0  0  0  0
   -2.6058   -1.0522    1.7271 H   0  0  0  0  0  0  0  0  0  0  0  0
   -3.2160    0.3595    0.7923 H   0  0  0  0  0  0  0  0  0  0  0  0
   -5.3544    0.3164    1.9008 H   0  0  0  0  0  0  0  0  0  0  0  0
   -4.0171    0.3404    3.0868 H   0  0  0  0  0  0  0  0  0  0  0  0
   -5.8587   -3.2210    2.6358 H   0  0  0  0  0  0  0  0  0  0  0  0
   -6.5204   -1.8960    1.6474 H   0  0  0  0  0  0  0  0  0  0  0  0
   -5.2136   -3.3745    0.2625 H   0  0  0  0  0  0  0  0  0  0  0  0
   -3.8592   -3.3684    1.4573 H   0  0  0  0  0  0  0  0  0  0  0  0
  1  2  1  0
  2  3  1  0
  3  4  2  0
  4  5  1  0
  5  6  2  0
  6  7  1  0
  7  8  2  0
  3  8  1  0
  7  9  1  0
  9 10  2  0
  9 11  1  0
  6 12  1  0
 12 13  1  0
 13 14  2  0
 14 15  1  0
 15 16  2  0
 16 17  1  0
 17 18  2  0
 13 18  1  0
 17 19  1  0
 19 20  1  0
 16 21  1  0
 21 22  1  0
 22 23  1  0
 23 24  1  0
 24 25  1  0
 25 26  1  0
 21 26  1  0
 24 27  1  0
 27 28  1  0
 28 29  1  0
 29 30  1  0
 30 31  1  0
 31 32  1  0
 27 32  1  0
 30 33  1  0
  4 34  1  0
 34 35  1  0
 35 36  1  0
 36 37  1  0
 37 38  1  0
 38 39  1  0
 39 40  1  0
 35 40  1  0
  1 41  1  0
  1 42  1  0
  1 43  1  0
  2 44  1  0
  2 45  1  0
 11 46  1  0
 11 47  1  0
 12 48  1  0
 14 49  1  0
 15 50  1  0
 18 51  1  0
 20 52  1  0
 20 53  1  0
 20 54  1  0
 22 55  1  0
 22 56  1  0
 23 57  1  0
 23 58  1  0
 24 59  1  0
 25 60  1  0
 25 61  1  0
 26 62  1  0
 26 63  1  0
 28 64  1  0
 28 65  1  0
 29 66  1  0
 29 67  1  0
 31 68  1  0
 31 69  1  0
 32 70  1  0
 32 71  1  0
 33 72  1  0
 33 73  1  0
 33 74  1  0
 34 75  1  0
 35 76  1  0
 36 77  1  0
 36 78  1  0
 37 79  1  0
 37 80  1  0
 39 81  1  0
 39 82  1  0
 40 83  1  0
 40 84  1  0
M  END

