347827881
     RDKit          3D

 21 20  0  0  0  0  0  0  0  0999 V2000
   -0.4529   -0.2765    0.0701 N   0  0  0  0  0  4  0  0  0  0  0  0
    1.7634    1.5952    0.4726 O   0  0  0  0  0  0  0  0  0  0  0  0
    0.9306   -0.5948   -0.0843 C   0  0  0  0  0  0  0  0  0  0  0  0
    1.7960    0.5630   -0.4698 C   0  0  0  0  0  0  0  0  0  0  0  0
   -1.0473    0.2164   -1.1648 C   0  0  0  0  0  0  0  0  0  0  0  0
   -0.7225    0.6744    1.1132 C   0  0  0  0  0  0  0  0  0  0  0  0
   -1.1536   -1.5076    0.4161 C   0  0  0  0  0  0  0  0  0  0  0  0
    2.3491    2.3169    0.1422 H   0  0  0  0  0  0  0  0  0  0  0  0
    1.0296   -1.3706   -0.8522 H   0  0  0  0  0  0  0  0  0  0  0  0
    1.3046   -1.0091    0.8615 H   0  0  0  0  0  0  0  0  0  0  0  0
    1.5879    0.9660   -1.4654 H   0  0  0  0  0  0  0  0  0  0  0  0
    2.8484    0.2006   -0.4819 H   0  0  0  0  0  0  0  0  0  0  0  0
   -2.1279   -0.0626   -1.1285 H   0  0  0  0  0  0  0  0  0  0  0  0
   -0.5969   -0.2698   -2.0423 H   0  0  0  0  0  0  0  0  0  0  0  0
   -0.9388    1.3168   -1.1711 H   0  0  0  0  0  0  0  0  0  0  0  0
    0.0943    0.7165    1.8536 H   0  0  0  0  0  0  0  0  0  0  0  0
   -1.6589    0.3938    1.6791 H   0  0  0  0  0  0  0  0  0  0  0  0
   -0.9432    1.6772    0.6596 H   0  0  0  0  0  0  0  0  0  0  0  0
   -0.4976   -2.3929    0.3337 H   0  0  0  0  0  0  0  0  0  0  0  0
   -2.0539   -1.6617   -0.2167 H   0  0  0  0  0  0  0  0  0  0  0  0
   -1.5106   -1.4911    1.4755 H   0  0  0  0  0  0  0  0  0  0  0  0
  2  4  1  0
  1  3  1  0
  3  4  1  0
  1  5  1  0
  1  6  1  0
  1  7  1  0
  2  8  1  0
  3  9  1  0
  3 10  1  0
  4 11  1  0
  4 12  1  0
  5 13  1  0
  5 14  1  0
  5 15  1  0
  6 16  1  0
  6 17  1  0
  6 18  1  0
  7 19  1  0
  7 20  1  0
  7 21  1  0
M  CHG  1   1   1
M  ISO  1   7  11
M  END

