347827714
     RDKit          3D

 98100  0  0  1  0  0  0  0  0999 V2000
   -3.1721    0.7317   -0.0803 C   0  0  2  0  0  0  0  0  0  0  0  0
   -3.2846    0.0776   -1.4166 C   0  0  0  0  0  0  0  0  0  0  0  0
   -4.7105   -0.2574   -1.7318 C   0  0  0  0  0  0  0  0  0  0  0  0
   -5.5376    0.6360   -2.3728 C   0  0  0  0  0  0  0  0  0  0  0  0
   -6.8589    0.3318   -2.6819 C   0  0  0  0  0  0  0  0  0  0  0  0
   -7.3679   -0.9024   -2.3394 C   0  0  0  0  0  0  0  0  0  0  0  0
   -6.5436   -1.7967   -1.6987 C   0  0  0  0  0  0  0  0  0  0  0  0
   -5.2286   -1.4882   -1.3939 C   0  0  0  0  0  0  0  0  0  0  0  0
   -1.7885    1.0806    0.3073 C   0  0  0  0  0  0  0  0  0  0  0  0
   -0.8980    1.5821   -0.6484 N   0  0  0  0  0  0  0  0  0  0  0  0
    0.4464    1.9727   -0.4270 C   0  0  1  0  0  0  0  0  0  0  0  0
    1.3146    0.7919   -0.0514 C   0  0  0  0  0  0  0  0  0  0  0  0
    2.6914    0.8324    0.1183 N   0  0  0  0  0  0  0  0  0  0  0  0
    3.5007   -0.3236    0.4987 C   0  0  1  0  0  0  0  0  0  0  0  0
    4.1854   -0.9220   -0.6622 C   0  0  0  0  0  0  0  0  0  0  0  0
    4.9068   -2.1318   -0.6251 N   0  0  0  0  0  0  0  0  0  0  0  0
    5.5750   -2.7015   -1.7744 C   0  0  0  0  0  0  0  0  0  0  0  0
    6.8316   -1.9628   -2.0547 C   0  0  0  0  0  0  0  0  0  0  0  0
    6.9040   -1.0544   -3.0983 C   0  0  0  0  0  0  0  0  0  0  0  0
    8.0918   -0.3734   -3.3410 C   0  0  0  0  0  0  0  0  0  0  0  0
    9.1889   -0.5632   -2.5938 N   0  0  0  0  0  0  0  0  0  0  0  0
    9.1473   -1.4439   -1.5680 C   0  0  0  0  0  0  0  0  0  0  0  0
    7.9753   -2.1374   -1.3028 C   0  0  0  0  0  0  0  0  0  0  0  0
    4.1391   -0.3360   -1.7878 O   0  0  0  0  0  0  0  0  0  0  0  0
    4.4019    0.1558    1.5688 C   0  0  0  0  0  0  0  0  0  0  0  0
    5.3728   -0.7886    2.1689 C   0  0  0  0  0  0  0  0  0  0  0  0
    6.1454    0.0311    3.2270 C   0  0  0  0  0  0  0  0  0  0  0  0
    7.1409   -0.7751    3.8913 N   0  0  0  0  0  0  0  0  0  0  0  0
    7.9685   -0.1458    4.8360 C   0  0  0  0  0  0  0  0  0  0  0  0
    7.4919    0.7240    5.6582 N   0  0  0  0  0  0  0  0  0  0  0  0
    9.3441   -0.4608    4.8982 N   0  0  0  0  0  0  0  0  0  0  0  0
    0.7031   -0.2862    0.1096 O   0  0  0  0  0  0  0  0  0  0  0  0
    1.1778    2.7597   -1.3992 C   0  0  0  0  0  0  0  0  0  0  0  0
    1.5760    2.3573   -2.7302 C   0  0  0  0  0  0  0  0  0  0  0  0
    0.6577    1.8583   -3.7721 C   0  0  0  0  0  0  0  0  0  0  0  0
    0.0208    0.5257   -3.5684 C   0  0  0  0  0  0  0  0  0  0  0  0
   -1.4346    0.9229    1.4836 O   0  0  0  0  0  0  0  0  0  0  0  0
   -3.9550    0.1373    0.9618 N   0  0  0  0  0  0  0  0  0  0  0  0
   -4.8510    0.8560    1.8202 C   0  0  0  0  0  0  0  0  0  0  0  0
   -5.6224    0.1491    2.8461 C   0  0  1  0  0  0  0  0  0  0  0  0
   -7.0178    0.6100    3.0546 C   0  0  0  0  0  0  0  0  0  0  0  0
   -7.9197    0.5503    1.9169 C   0  0  0  0  0  0  0  0  0  0  0  0
   -8.0889    1.6333    1.0834 C   0  0  0  0  0  0  0  0  0  0  0  0
   -8.9587    1.5807   -0.0068 C   0  0  0  0  0  0  0  0  0  0  0  0
   -9.6744    0.4355   -0.2779 C   0  0  0  0  0  0  0  0  0  0  0  0
   -9.5113   -0.6485    0.5479 C   0  0  0  0  0  0  0  0  0  0  0  0
   -8.6452   -0.5785    1.6238 C   0  0  0  0  0  0  0  0  0  0  0  0
   -5.4819   -1.3049    2.7395 N   0  0  0  0  0  0  0  0  0  0  0  0
   -4.9639    2.0908    1.6793 O   0  0  0  0  0  0  0  0  0  0  0  0
   -3.6672    1.7669   -0.2244 H   0  0  0  0  0  0  0  0  0  0  0  0
   -2.9766    0.7707   -2.2292 H   0  0  0  0  0  0  0  0  0  0  0  0
   -2.6881   -0.8439   -1.5358 H   0  0  0  0  0  0  0  0  0  0  0  0
   -5.1916    1.6118   -2.6608 H   0  0  0  0  0  0  0  0  0  0  0  0
   -7.4987    1.0303   -3.1796 H   0  0  0  0  0  0  0  0  0  0  0  0
   -8.4108   -1.1414   -2.5828 H   0  0  0  0  0  0  0  0  0  0  0  0
   -6.9836   -2.7541   -1.4480 H   0  0  0  0  0  0  0  0  0  0  0  0
   -4.6299   -2.2321   -0.8902 H   0  0  0  0  0  0  0  0  0  0  0  0
   -1.2832    1.7163   -1.6071 H   0  0  0  0  0  0  0  0  0  0  0  0
    0.4274    2.5246    0.5788 H   0  0  0  0  0  0  0  0  0  0  0  0
    3.2064    1.7131   -0.0236 H   0  0  0  0  0  0  0  0  0  0  0  0
    2.8022   -1.0846    0.8744 H   0  0  0  0  0  0  0  0  0  0  0  0
    4.9552   -2.6570    0.2676 H   0  0  0  0  0  0  0  0  0  0  0  0
    4.9383   -2.7211   -2.6850 H   0  0  0  0  0  0  0  0  0  0  0  0
    5.8586   -3.7693   -1.5924 H   0  0  0  0  0  0  0  0  0  0  0  0
    6.0312   -0.9084   -3.6880 H   0  0  0  0  0  0  0  0  0  0  0  0
    8.0831    0.3212   -4.1707 H   0  0  0  0  0  0  0  0  0  0  0  0
   10.0495   -1.5814   -0.9751 H   0  0  0  0  0  0  0  0  0  0  0  0
    7.9664   -2.8317   -0.4825 H   0  0  0  0  0  0  0  0  0  0  0  0
    5.0093    1.0560    1.2417 H   0  0  0  0  0  0  0  0  0  0  0  0
    3.8075    0.5818    2.4343 H   0  0  0  0  0  0  0  0  0  0  0  0
    6.1741   -1.0863    1.4547 H   0  0  0  0  0  0  0  0  0  0  0  0
    4.8965   -1.6282    2.6980 H   0  0  0  0  0  0  0  0  0  0  0  0
    6.6894    0.8698    2.7298 H   0  0  0  0  0  0  0  0  0  0  0  0
    5.4437    0.5269    3.9392 H   0  0  0  0  0  0  0  0  0  0  0  0
    7.2068   -1.7807    3.6495 H   0  0  0  0  0  0  0  0  0  0  0  0
    6.4893    1.0050    5.6735 H   0  0  0  0  0  0  0  0  0  0  0  0
    9.9811    0.1050    5.4910 H   0  0  0  0  0  0  0  0  0  0  0  0
    9.7542   -1.2518    4.3653 H   0  0  0  0  0  0  0  0  0  0  0  0
    2.1481    3.1925   -0.9000 H   0  0  0  0  0  0  0  0  0  0  0  0
    0.6438    3.8006   -1.5530 H   0  0  0  0  0  0  0  0  0  0  0  0
    2.1999    3.2359   -3.1927 H   0  0  0  0  0  0  0  0  0  0  0  0
    2.4296    1.5742   -2.7044 H   0  0  0  0  0  0  0  0  0  0  0  0
   -0.2045    2.6029   -3.8414 H   0  0  0  0  0  0  0  0  0  0  0  0
    1.1733    1.8422   -4.7732 H   0  0  0  0  0  0  0  0  0  0  0  0
   -1.0857    0.5467   -3.6508 H   0  0  0  0  0  0  0  0  0  0  0  0
    0.4426   -0.1966   -4.3429 H   0  0  0  0  0  0  0  0  0  0  0  0
    0.2724    0.0395   -2.6088 H   0  0  0  0  0  0  0  0  0  0  0  0
   -3.8773   -0.8890    1.1167 H   0  0  0  0  0  0  0  0  0  0  0  0
   -5.0814    0.3779    3.8264 H   0  0  0  0  0  0  0  0  0  0  0  0
   -7.4566   -0.0719    3.8475 H   0  0  0  0  0  0  0  0  0  0  0  0
   -6.9719    1.6417    3.4882 H   0  0  0  0  0  0  0  0  0  0  0  0
   -7.5856    2.5793    1.2023 H   0  0  0  0  0  0  0  0  0  0  0  0
   -9.0981    2.4239   -0.6682 H   0  0  0  0  0  0  0  0  0  0  0  0
  -10.3492    0.4122   -1.1329 H   0  0  0  0  0  0  0  0  0  0  0  0
  -10.0701   -1.5551    0.3419 H   0  0  0  0  0  0  0  0  0  0  0  0
   -8.5427   -1.4403    2.2449 H   0  0  0  0  0  0  0  0  0  0  0  0
   -6.2626   -1.8254    3.1449 H   0  0  0  0  0  0  0  0  0  0  0  0
   -4.5492   -1.5982    3.0986 H   0  0  0  0  0  0  0  0  0  0  0  0
  1  2  1  0
  2  3  1  0
  3  4  2  0
  4  5  1  0
  5  6  2  0
  6  7  1  0
  3  8  1  0
  7  8  2  0
  1  9  1  0
  9 10  1  0
 10 11  1  0
 11 12  1  0
 12 13  1  0
 13 14  1  0
 14 15  1  0
 15 16  1  0
 16 17  1  0
 17 18  1  0
 18 19  2  0
 19 20  1  0
 20 21  2  0
 21 22  1  0
 18 23  1  0
 22 23  2  0
 15 24  2  0
 14 25  1  0
 25 26  1  0
 26 27  1  0
 27 28  1  0
 28 29  1  0
 29 30  2  3
 29 31  1  0
 12 32  2  0
 11 33  1  0
 33 34  1  0
 34 35  1  0
 35 36  1  0
  9 37  2  0
  1 38  1  0
 38 39  1  0
 39 40  1  0
 40 41  1  0
 41 42  1  0
 42 43  2  0
 43 44  1  0
 44 45  2  0
 45 46  1  0
 42 47  1  0
 46 47  2  0
 40 48  1  0
 39 49  2  0
  1 50  1  6
  2 51  1  0
  2 52  1  0
  4 53  1  0
  5 54  1  0
  6 55  1  0
  7 56  1  0
  8 57  1  0
 10 58  1  0
 11 59  1  1
 13 60  1  0
 14 61  1  1
 16 62  1  0
 17 63  1  0
 17 64  1  0
 19 65  1  0
 20 66  1  0
 22 67  1  0
 23 68  1  0
 25 69  1  0
 25 70  1  0
 26 71  1  0
 26 72  1  0
 27 73  1  0
 27 74  1  0
 28 75  1  0
 30 76  1  0
 31 77  1  0
 31 78  1  0
 33 79  1  0
 33 80  1  0
 34 81  1  0
 34 82  1  0
 35 83  1  0
 35 84  1  0
 36 85  1  0
 36 86  1  0
 36 87  1  0
 38 88  1  0
 40 89  1  1
 41 90  1  0
 41 91  1  0
 43 92  1  0
 44 93  1  0
 45 94  1  0
 46 95  1  0
 47 96  1  0
 48 97  1  0
 48 98  1  0
M  END

