347828199
     RDKit          3D

129132  0  0  1  0  0  0  0  0999 V2000
    9.9042   -2.8633    3.7567 C   0  0  0  0  0  0  0  0  0  0  0  0
   10.5228   -3.3346    2.4590 C   0  0  0  0  0  0  0  0  0  0  0  0
   11.9969   -2.9566    2.4835 C   0  0  0  0  0  0  0  0  0  0  0  0
   12.7447   -3.3800    1.2716 C   0  0  0  0  0  0  0  0  0  0  0  0
   12.2490   -2.7689   -0.0295 C   0  0  0  0  0  0  0  0  0  0  0  0
   12.3802   -1.2668    0.0007 C   0  0  0  0  0  0  0  0  0  0  0  0
   11.9312   -0.6866   -1.2965 C   0  0  0  0  0  0  0  0  0  0  0  0
   10.4885   -0.9685   -1.6033 C   0  0  0  0  0  0  0  0  0  0  0  0
    9.6042   -0.3827   -0.5418 C   0  0  0  0  0  0  0  0  0  0  0  0
    8.1242   -0.5882   -0.8291 C   0  0  0  0  0  0  0  0  0  0  0  0
    7.7727    0.0734   -2.1661 C   0  0  0  0  0  0  0  0  0  0  0  0
    8.1226    1.5325   -2.1238 C   0  0  0  0  0  0  0  0  0  0  0  0
    7.3966    2.2976   -1.0709 C   0  0  0  0  0  0  0  0  0  0  0  0
    5.8971    2.2727   -1.3571 C   0  0  0  0  0  0  0  0  0  0  0  0
    5.1708    3.0415   -0.3029 C   0  0  0  0  0  0  0  0  0  0  0  0
    3.6558    3.0808   -0.5614 C   0  0  0  0  0  0  0  0  0  0  0  0
    3.3990    3.7959   -1.8151 C   0  0  0  0  0  0  0  0  0  0  0  0
    2.0600    4.1094   -2.2960 C   0  0  0  0  0  0  0  0  0  0  0  0
    1.0157    3.1514   -2.5920 C   0  0  0  0  0  0  0  0  0  0  0  0
    0.4334    2.3355   -1.5021 C   0  0  0  0  0  0  0  0  0  0  0  0
    0.8876    2.3335   -0.3642 O   0  0  0  0  0  0  0  0  0  0  0  0
   -0.7128    1.5124   -1.7657 N   0  0  0  0  0  0  0  0  0  0  0  0
   -1.2632    0.7224   -0.6999 C   0  0  1  0  0  0  0  0  0  0  0  0
   -1.9583    1.7462    0.2222 C   0  0  0  0  0  0  0  0  0  0  0  0
   -3.1745    1.0818    0.7901 C   0  0  0  0  0  0  0  0  0  0  0  0
   -4.2025    0.9922   -0.3124 C   0  0  1  0  0  0  0  0  0  0  0  0
   -3.5848    0.5101   -1.6068 C   0  0  1  0  0  0  0  0  0  0  0  0
   -2.2783   -0.2180   -1.2272 C   0  0  0  0  0  0  0  0  0  0  0  0
   -4.4259   -0.4863   -2.3301 C   0  0  0  0  0  0  0  0  0  0  0  0
   -5.9034   -0.2254   -2.3122 C   0  0  2  0  0  0  0  0  0  0  0  0
   -6.4178    0.2645   -0.9655 C   0  0  2  0  0  0  0  0  0  0  0  0
   -5.3098    0.0125    0.0184 C   0  0  2  0  0  0  0  0  0  0  0  0
   -5.7073    0.0422    1.4453 C   0  0  0  0  0  0  0  0  0  0  0  0
   -6.8477   -0.9841    1.6370 C   0  0  1  0  0  0  0  0  0  0  0  0
   -8.0087   -0.4912    0.8690 C   0  0  1  0  0  0  0  0  0  0  0  0
   -7.6106   -0.5140   -0.6175 C   0  0  1  0  0  0  0  0  0  0  0  0
   -8.8944   -0.0081   -1.2355 C   0  0  0  0  0  0  0  0  0  0  0  0
   -9.9638   -0.6622   -0.3987 C   0  0  0  0  0  0  0  0  0  0  0  0
   -9.2230   -1.3307    0.7800 C   0  0  2  0  0  0  0  0  0  0  0  0
  -10.1039   -1.4693    1.9580 C   0  0  2  0  0  0  0  0  0  0  0  0
   -9.3618   -2.1034    3.1040 C   0  0  0  0  0  0  0  0  0  0  0  0
  -11.3459   -2.2427    1.5782 C   0  0  0  0  0  0  0  0  0  0  0  0
  -12.3223   -2.4485    2.6765 C   0  0  0  0  0  0  0  0  0  0  0  0
  -12.8774   -1.2060    3.2689 C   0  0  0  0  0  0  0  0  0  0  0  0
  -12.6174   -0.0476    2.8690 O   0  0  0  0  0  0  0  0  0  0  0  0
  -13.7499   -1.3111    4.3456 O   0  0  0  0  0  0  0  0  0  0  0  0
   -8.3128    0.9302    1.3187 C   0  0  0  0  0  0  0  0  0  0  0  0
   -6.3461   -2.1753    1.1429 O   0  0  0  0  0  0  0  0  0  0  0  0
   -6.5232   -1.4548   -2.6322 O   0  0  0  0  0  0  0  0  0  0  0  0
   -4.8157    2.3873   -0.4474 C   0  0  0  0  0  0  0  0  0  0  0  0
    9.6800   -1.7893    3.7237 H   0  0  0  0  0  0  0  0  0  0  0  0
   10.6236   -3.0413    4.5878 H   0  0  0  0  0  0  0  0  0  0  0  0
    8.9426   -3.3826    3.9409 H   0  0  0  0  0  0  0  0  0  0  0  0
    9.9838   -2.9594    1.5873 H   0  0  0  0  0  0  0  0  0  0  0  0
   10.4210   -4.4569    2.4491 H   0  0  0  0  0  0  0  0  0  0  0  0
   12.1067   -1.8578    2.6345 H   0  0  0  0  0  0  0  0  0  0  0  0
   12.4587   -3.4541    3.3555 H   0  0  0  0  0  0  0  0  0  0  0  0
   12.7672   -4.4791    1.1454 H   0  0  0  0  0  0  0  0  0  0  0  0
   13.7916   -3.0019    1.3837 H   0  0  0  0  0  0  0  0  0  0  0  0
   11.2255   -3.1171   -0.2553 H   0  0  0  0  0  0  0  0  0  0  0  0
   12.9166   -3.1537   -0.8243 H   0  0  0  0  0  0  0  0  0  0  0  0
   11.7961   -0.7840    0.8118 H   0  0  0  0  0  0  0  0  0  0  0  0
   13.4650   -1.0420    0.1509 H   0  0  0  0  0  0  0  0  0  0  0  0
   12.5562   -1.1003   -2.1392 H   0  0  0  0  0  0  0  0  0  0  0  0
   12.0341    0.4357   -1.2824 H   0  0  0  0  0  0  0  0  0  0  0  0
   10.2659   -0.5494   -2.6075 H   0  0  0  0  0  0  0  0  0  0  0  0
   10.2761   -2.0615   -1.6986 H   0  0  0  0  0  0  0  0  0  0  0  0
    9.8000   -0.8701    0.4402 H   0  0  0  0  0  0  0  0  0  0  0  0
    9.8458    0.6919   -0.4174 H   0  0  0  0  0  0  0  0  0  0  0  0
    7.5551   -0.1627   -0.0050 H   0  0  0  0  0  0  0  0  0  0  0  0
    7.9371   -1.6632   -0.9477 H   0  0  0  0  0  0  0  0  0  0  0  0
    6.6972   -0.0352   -2.3171 H   0  0  0  0  0  0  0  0  0  0  0  0
    8.2904   -0.4348   -2.9799 H   0  0  0  0  0  0  0  0  0  0  0  0
    9.2255    1.7204   -2.0522 H   0  0  0  0  0  0  0  0  0  0  0  0
    7.8216    1.9607   -3.1089 H   0  0  0  0  0  0  0  0  0  0  0  0
    7.6998    3.3587   -1.1193 H   0  0  0  0  0  0  0  0  0  0  0  0
    7.5117    1.8866   -0.0407 H   0  0  0  0  0  0  0  0  0  0  0  0
    5.7058    2.5887   -2.3911 H   0  0  0  0  0  0  0  0  0  0  0  0
    5.5062    1.2139   -1.2966 H   0  0  0  0  0  0  0  0  0  0  0  0
    5.3697    2.5759    0.6860 H   0  0  0  0  0  0  0  0  0  0  0  0
    5.5707    4.0912   -0.2993 H   0  0  0  0  0  0  0  0  0  0  0  0
    3.4110    1.9806   -0.6076 H   0  0  0  0  0  0  0  0  0  0  0  0
    3.2170    3.5526    0.3351 H   0  0  0  0  0  0  0  0  0  0  0  0
    3.9332    4.8142   -1.7017 H   0  0  0  0  0  0  0  0  0  0  0  0
    4.0287    3.3470   -2.6608 H   0  0  0  0  0  0  0  0  0  0  0  0
    1.5723    4.9288   -1.6476 H   0  0  0  0  0  0  0  0  0  0  0  0
    2.2120    4.7184   -3.2737 H   0  0  0  0  0  0  0  0  0  0  0  0
    0.1230    3.7372   -2.9969 H   0  0  0  0  0  0  0  0  0  0  0  0
    1.2459    2.4870   -3.4867 H   0  0  0  0  0  0  0  0  0  0  0  0
   -1.1575    1.4706   -2.7068 H   0  0  0  0  0  0  0  0  0  0  0  0
   -0.4928    0.2784   -0.0433 H   0  0  0  0  0  0  0  0  0  0  0  0
   -1.2825    1.9913    1.0899 H   0  0  0  0  0  0  0  0  0  0  0  0
   -2.1932    2.6529   -0.3453 H   0  0  0  0  0  0  0  0  0  0  0  0
   -2.8953    0.1186    1.2317 H   0  0  0  0  0  0  0  0  0  0  0  0
   -3.5702    1.7659    1.5787 H   0  0  0  0  0  0  0  0  0  0  0  0
   -3.3033    1.3593   -2.2721 H   0  0  0  0  0  0  0  0  0  0  0  0
   -1.9281   -0.8220   -2.0951 H   0  0  0  0  0  0  0  0  0  0  0  0
   -2.5480   -0.9534   -0.4446 H   0  0  0  0  0  0  0  0  0  0  0  0
   -4.0956   -0.4531   -3.4109 H   0  0  0  0  0  0  0  0  0  0  0  0
   -4.2112   -1.5596   -2.0403 H   0  0  0  0  0  0  0  0  0  0  0  0
   -6.1706    0.4417   -3.1511 H   0  0  0  0  0  0  0  0  0  0  0  0
   -6.6311    1.3467   -1.1231 H   0  0  0  0  0  0  0  0  0  0  0  0
   -4.9043   -1.0107   -0.1858 H   0  0  0  0  0  0  0  0  0  0  0  0
   -6.0503    1.0342    1.7677 H   0  0  0  0  0  0  0  0  0  0  0  0
   -4.8379   -0.3111    2.0405 H   0  0  0  0  0  0  0  0  0  0  0  0
   -6.9842   -0.9737    2.7411 H   0  0  0  0  0  0  0  0  0  0  0  0
   -7.5202   -1.5798   -0.9068 H   0  0  0  0  0  0  0  0  0  0  0  0
   -8.9847   -0.2895   -2.3048 H   0  0  0  0  0  0  0  0  0  0  0  0
   -8.8845    1.0840   -1.1985 H   0  0  0  0  0  0  0  0  0  0  0  0
  -10.4599   -1.4281   -1.0279 H   0  0  0  0  0  0  0  0  0  0  0  0
  -10.6381    0.1329   -0.0305 H   0  0  0  0  0  0  0  0  0  0  0  0
   -8.9049   -2.3363    0.4101 H   0  0  0  0  0  0  0  0  0  0  0  0
  -10.3965   -0.4374    2.3369 H   0  0  0  0  0  0  0  0  0  0  0  0
   -8.9553   -1.3950    3.8373 H   0  0  0  0  0  0  0  0  0  0  0  0
   -8.5214   -2.7239    2.7171 H   0  0  0  0  0  0  0  0  0  0  0  0
  -10.0152   -2.8766    3.6228 H   0  0  0  0  0  0  0  0  0  0  0  0
  -11.8502   -1.6475    0.7785 H   0  0  0  0  0  0  0  0  0  0  0  0
  -11.0695   -3.2355    1.1735 H   0  0  0  0  0  0  0  0  0  0  0  0
  -13.2311   -2.9784    2.2434 H   0  0  0  0  0  0  0  0  0  0  0  0
  -11.9952   -3.1382    3.4805 H   0  0  0  0  0  0  0  0  0  0  0  0
  -13.9864   -2.1483    4.8306 H   0  0  0  0  0  0  0  0  0  0  0  0
   -9.4188    1.1156    1.3158 H   0  0  0  0  0  0  0  0  0  0  0  0
   -7.8803    1.7040    0.6841 H   0  0  0  0  0  0  0  0  0  0  0  0
   -7.9821    1.1008    2.3589 H   0  0  0  0  0  0  0  0  0  0  0  0
   -5.9303   -2.7430    1.8188 H   0  0  0  0  0  0  0  0  0  0  0  0
   -6.7577   -1.5346   -3.5812 H   0  0  0  0  0  0  0  0  0  0  0  0
   -5.1073    2.6423   -1.4633 H   0  0  0  0  0  0  0  0  0  0  0  0
   -4.0996    3.1757   -0.0934 H   0  0  0  0  0  0  0  0  0  0  0  0
   -5.6395    2.4034    0.3000 H   0  0  0  0  0  0  0  0  0  0  0  0
  1  2  1  0
  2  3  1  0
  3  4  1  0
  4  5  1  0
  5  6  1  0
  6  7  1  0
  7  8  1  0
  8  9  1  0
  9 10  1  0
 10 11  1  0
 11 12  1  0
 12 13  1  0
 13 14  1  0
 14 15  1  0
 15 16  1  0
 16 17  1  0
 17 18  1  0
 18 19  1  0
 19 20  1  0
 20 21  2  0
 20 22  1  0
 23 22  1  0
 23 24  1  0
 24 25  1  0
 25 26  1  0
 26 27  1  0
 27 28  1  0
 23 28  1  0
 27 29  1  0
 29 30  1  0
 30 31  1  0
 31 32  1  0
 26 32  1  0
 32 33  1  0
 33 34  1  0
 34 35  1  0
 35 36  1  0
 31 36  1  0
 36 37  1  0
 37 38  1  0
 38 39  1  0
 35 39  1  0
 39 40  1  0
 40 41  1  0
 40 42  1  0
 42 43  1  0
 43 44  1  0
 44 45  2  0
 44 46  1  0
 35 47  1  1
 34 48  1  0
 30 49  1  0
 26 50  1  6
  1 51  1  0
  1 52  1  0
  1 53  1  0
  2 54  1  0
  2 55  1  0
  3 56  1  0
  3 57  1  0
  4 58  1  0
  4 59  1  0
  5 60  1  0
  5 61  1  0
  6 62  1  0
  6 63  1  0
  7 64  1  0
  7 65  1  0
  8 66  1  0
  8 67  1  0
  9 68  1  0
  9 69  1  0
 10 70  1  0
 10 71  1  0
 11 72  1  0
 11 73  1  0
 12 74  1  0
 12 75  1  0
 13 76  1  0
 13 77  1  0
 14 78  1  0
 14 79  1  0
 15 80  1  0
 15 81  1  0
 16 82  1  0
 16 83  1  0
 17 84  1  0
 17 85  1  0
 18 86  1  0
 18 87  1  0
 19 88  1  0
 19 89  1  0
 22 90  1  0
 23 91  1  1
 24 92  1  0
 24 93  1  0
 25 94  1  0
 25 95  1  0
 27 96  1  6
 28 97  1  0
 28 98  1  0
 29 99  1  0
 29100  1  0
 30101  1  6
 31102  1  6
 32103  1  6
 33104  1  0
 33105  1  0
 34106  1  1
 36107  1  6
 37108  1  0
 37109  1  0
 38110  1  0
 38111  1  0
 39112  1  6
 40113  1  1
 41114  1  0
 41115  1  0
 41116  1  0
 42117  1  0
 42118  1  0
 43119  1  0
 43120  1  0
 46121  1  0
 47122  1  0
 47123  1  0
 47124  1  0
 48125  1  0
 49126  1  0
 50127  1  0
 50128  1  0
 50129  1  0
M  END

