347827856
     RDKit          3D

 14 13  0  0  0  0  0  0  0  0999 V2000
   -2.3034    0.4402    0.3256 O   0  0  0  0  0  0  0  0  0  0  0  0
   -1.2533   -0.0485   -0.4839 C   0  0  0  0  0  0  0  0  0  0  0  0
    0.0310    0.2561    0.2651 C   0  0  0  0  0  0  0  0  0  0  0  0
    0.0157   -0.3764    1.4904 O   0  0  0  0  0  0  0  0  0  0  0  0
    1.2114   -0.1658   -0.5827 C   0  0  0  0  0  0  0  0  0  0  0  0
    2.4171    0.1146    0.0110 O   0  0  0  0  0  0  0  0  0  0  0  0
   -1.9570    1.2808    0.7268 H   0  0  0  0  0  0  0  0  0  0  0  0
   -1.2817    0.3902   -1.4798 H   0  0  0  0  0  0  0  0  0  0  0  0
   -1.4310   -1.1330   -0.5691 H   0  0  0  0  0  0  0  0  0  0  0  0
    0.1414    1.3421    0.4561 H   0  0  0  0  0  0  0  0  0  0  0  0
   -0.9286   -0.5780    1.7165 H   0  0  0  0  0  0  0  0  0  0  0  0
    1.1455   -1.2653   -0.8124 H   0  0  0  0  0  0  0  0  0  0  0  0
    1.1315    0.3945   -1.5356 H   0  0  0  0  0  0  0  0  0  0  0  0
    3.0614   -0.6515   -0.0244 H   0  0  0  0  0  0  0  0  0  0  0  0
  1  2  1  0
  2  3  1  0
  3  4  1  0
  3  5  1  0
  5  6  1  0
  1  7  1  0
  2  8  1  0
  2  9  1  0
  3 10  1  0
  4 11  1  0
  5 12  1  0
  5 13  1  0
  6 14  1  0
M  END

