347828240
     RDKit          3D

 68 71  0  0  0  0  0  0  0  0999 V2000
   -6.5850    3.9754   -1.1356 C   0  0  0  0  0  0  0  0  0  0  0  0
   -6.8274    2.6792   -1.7745 C   0  0  0  0  0  0  0  0  0  0  0  0
   -7.0940    2.6084   -3.0036 O   0  0  0  0  0  0  0  0  0  0  0  0
   -6.7732    1.4638   -1.0441 N   0  0  0  0  0  0  0  0  0  0  0  0
   -6.4715    1.5005    0.3674 C   0  0  0  0  0  0  0  0  0  0  0  0
   -5.8073    0.1588    0.7145 C   0  0  0  0  0  0  0  0  0  0  0  0
   -5.0003   -0.3000   -0.3847 N   0  0  0  0  0  0  0  0  0  0  0  0
   -5.7168   -0.6338   -1.6256 C   0  0  0  0  0  0  0  0  0  0  0  0
   -7.0094    0.1738   -1.6594 C   0  0  0  0  0  0  0  0  0  0  0  0
   -3.5901   -0.4201   -0.3039 C   0  0  0  0  0  0  0  0  0  0  0  0
   -2.9045   -1.0878   -1.3118 C   0  0  0  0  0  0  0  0  0  0  0  0
   -1.5248   -1.2146   -1.2705 C   0  0  0  0  0  0  0  0  0  0  0  0
   -0.7562   -0.7064   -0.2629 C   0  0  0  0  0  0  0  0  0  0  0  0
   -1.4696   -0.0363    0.7437 C   0  0  0  0  0  0  0  0  0  0  0  0
   -2.8355    0.0973    0.7164 C   0  0  0  0  0  0  0  0  0  0  0  0
   -0.7751    0.5107    1.8028 O   0  0  0  0  0  0  0  0  0  0  0  0
   -1.4105    1.2019    2.8612 C   0  0  0  0  0  0  0  0  0  0  0  0
    0.6511   -0.8029   -0.1703 N   0  0  0  0  0  0  0  0  0  0  0  0
    1.5324   -1.4476   -1.0500 C   0  0  0  0  0  0  0  0  0  0  0  0
    1.0998   -2.0771   -2.1294 N   0  0  0  0  0  0  0  0  0  0  0  0
    1.8821   -2.7139   -3.0062 C   0  0  0  0  0  0  0  0  0  0  0  0
    3.2470   -2.7134   -2.7650 C   0  0  0  0  0  0  0  0  0  0  0  0
    3.7636   -2.0600   -1.6340 C   0  0  0  0  0  0  0  0  0  0  0  0
    2.8689   -1.4676   -0.8474 N   0  0  0  0  0  0  0  0  0  0  0  0
    5.1384   -2.0906   -1.4323 N   0  0  0  0  0  0  0  0  0  0  0  0
    5.9088   -1.5081   -0.3890 C   0  0  0  0  0  0  0  0  0  0  0  0
    7.2360   -1.8471   -0.2220 C   0  0  0  0  0  0  0  0  0  0  0  0
    7.9799   -1.2796    0.7663 C   0  0  0  0  0  0  0  0  0  0  0  0
    7.3952   -0.3646    1.5966 C   0  0  0  0  0  0  0  0  0  0  0  0
    6.0541    0.0156    1.4715 C   0  0  0  0  0  0  0  0  0  0  0  0
    5.3393   -0.5845    0.4578 C   0  0  0  0  0  0  0  0  0  0  0  0
    5.5767    0.9599    2.3918 N   0  0  0  0  0  0  0  0  0  0  0  0
    4.3246    1.5936    2.4343 C   0  0  0  0  0  0  0  0  0  0  0  0
    3.4556    1.3279    1.5540 O   0  0  0  0  0  0  0  0  0  0  0  0
    3.9325    2.5712    3.4528 C   0  0  0  0  0  0  0  0  0  0  0  0
    4.7183    2.9426    4.4212 C   0  0  0  0  0  0  0  0  0  0  0  0
    4.1345   -3.4165   -3.7058 C   0  0  0  0  0  0  0  0  0  0  0  0
    4.8430   -4.4548   -3.1248 F   0  0  0  0  0  0  0  0  0  0  0  0
    5.0071   -2.5198   -4.3342 F   0  0  0  0  0  0  0  0  0  0  0  0
    3.3972   -3.9800   -4.7284 F   0  0  0  0  0  0  0  0  0  0  0  0
   -6.4001    4.7315   -1.9413 H   0  0  0  0  0  0  0  0  0  0  0  0
   -5.7090    4.0091   -0.4842 H   0  0  0  0  0  0  0  0  0  0  0  0
   -7.5169    4.2549   -0.5701 H   0  0  0  0  0  0  0  0  0  0  0  0
   -7.4181    1.6287    0.9229 H   0  0  0  0  0  0  0  0  0  0  0  0
   -5.7462    2.3002    0.6258 H   0  0  0  0  0  0  0  0  0  0  0  0
   -5.2443    0.1953    1.6526 H   0  0  0  0  0  0  0  0  0  0  0  0
   -6.6604   -0.5829    0.8175 H   0  0  0  0  0  0  0  0  0  0  0  0
   -6.0025   -1.7003   -1.5794 H   0  0  0  0  0  0  0  0  0  0  0  0
   -5.1247   -0.3587   -2.5177 H   0  0  0  0  0  0  0  0  0  0  0  0
   -7.3768    0.2906   -2.6860 H   0  0  0  0  0  0  0  0  0  0  0  0
   -7.8226   -0.3183   -1.0794 H   0  0  0  0  0  0  0  0  0  0  0  0
   -3.5000   -1.4956   -2.1143 H   0  0  0  0  0  0  0  0  0  0  0  0
   -1.0785   -1.7429   -2.0870 H   0  0  0  0  0  0  0  0  0  0  0  0
   -3.3283    0.6426    1.5422 H   0  0  0  0  0  0  0  0  0  0  0  0
   -0.6448    1.3792    3.6443 H   0  0  0  0  0  0  0  0  0  0  0  0
   -1.8364    2.1680    2.5607 H   0  0  0  0  0  0  0  0  0  0  0  0
   -2.2421    0.5658    3.2797 H   0  0  0  0  0  0  0  0  0  0  0  0
    1.1398   -0.3324    0.6712 H   0  0  0  0  0  0  0  0  0  0  0  0
    1.4989   -3.2261   -3.8891 H   0  0  0  0  0  0  0  0  0  0  0  0
    5.7267   -2.6193   -2.1569 H   0  0  0  0  0  0  0  0  0  0  0  0
    7.7079   -2.5701   -0.8741 H   0  0  0  0  0  0  0  0  0  0  0  0
    9.0448   -1.5610    0.8900 H   0  0  0  0  0  0  0  0  0  0  0  0
    8.0450    0.0544    2.3678 H   0  0  0  0  0  0  0  0  0  0  0  0
    4.3042   -0.2819    0.3650 H   0  0  0  0  0  0  0  0  0  0  0  0
    6.2378    1.2566    3.1844 H   0  0  0  0  0  0  0  0  0  0  0  0
    2.9298    3.0184    3.4049 H   0  0  0  0  0  0  0  0  0  0  0  0
    5.7105    2.5651    4.5509 H   0  0  0  0  0  0  0  0  0  0  0  0
    4.3711    3.6761    5.1529 H   0  0  0  0  0  0  0  0  0  0  0  0
  1  2  1  0
  2  3  2  0
  2  4  1  0
  4  5  1  0
  5  6  1  0
  6  7  1  0
  7  8  1  0
  8  9  1  0
  4  9  1  0
  7 10  1  0
 10 11  2  0
 11 12  1  0
 12 13  2  0
 13 14  1  0
 14 15  2  0
 10 15  1  0
 14 16  1  0
 16 17  1  0
 13 18  1  0
 18 19  1  0
 19 20  2  0
 20 21  1  0
 21 22  2  0
 22 23  1  0
 23 24  2  0
 19 24  1  0
 23 25  1  0
 25 26  1  0
 26 27  2  0
 27 28  1  0
 28 29  2  0
 29 30  1  0
 30 31  2  0
 26 31  1  0
 30 32  1  0
 32 33  1  0
 33 34  2  0
 33 35  1  0
 35 36  2  3
 22 37  1  0
 37 38  1  0
 37 39  1  0
 37 40  1  0
  1 41  1  0
  1 42  1  0
  1 43  1  0
  5 44  1  0
  5 45  1  0
  6 46  1  0
  6 47  1  0
  8 48  1  0
  8 49  1  0
  9 50  1  0
  9 51  1  0
 11 52  1  0
 12 53  1  0
 15 54  1  0
 17 55  1  0
 17 56  1  0
 17 57  1  0
 18 58  1  0
 21 59  1  0
 25 60  1  0
 27 61  1  0
 28 62  1  0
 29 63  1  0
 31 64  1  0
 32 65  1  0
 35 66  1  0
 36 67  1  0
 36 68  1  0
M  END

