347827713
     RDKit          3D

 85 86  0  0  1  0  0  0  0  0999 V2000
    6.4530    1.2422    3.4982 C   0  0  0  0  0  0  0  0  0  0  0  0
    0.9958    2.5448    0.6230 C   0  0  0  0  0  0  0  0  0  0  0  0
    1.6468   -4.6463   -2.9742 C   0  0  0  0  0  0  0  0  0  0  0  0
   -4.3870    1.2112   -0.5454 C   0  0  0  0  0  0  0  0  0  0  0  0
   -4.0871   -2.8224   -0.1717 C   0  0  0  0  0  0  0  0  0  0  0  0
   -0.1056   -1.1126   -3.8635 C   0  0  0  0  0  0  0  0  0  0  0  0
   -3.0969    3.6928    2.7712 C   0  0  0  0  0  0  0  0  0  0  0  0
    5.5117    2.1649    3.5987 C   0  0  0  0  0  0  0  0  0  0  0  0
   -0.1904   -3.0637   -0.2204 C   0  0  0  0  0  0  0  0  0  0  0  0
    0.6898   -3.9137   -0.9463 C   0  0  0  0  0  0  0  0  0  0  0  0
   -0.7208   -1.9380   -0.6274 C   0  0  0  0  0  0  0  0  0  0  0  0
    5.2954    3.0769    2.4561 C   0  0  0  0  0  0  0  0  0  0  0  0
    1.9223    1.5113    2.7161 C   0  0  0  0  0  0  0  0  0  0  0  0
   -0.5298    1.5083    2.2028 C   0  0  0  0  0  0  0  0  0  0  0  0
   -3.1252   -0.6809    0.4608 C   0  0  0  0  0  0  0  0  0  0  0  0
    4.2228    0.1534   -0.6196 C   0  0  0  0  0  0  0  0  0  0  0  0
    0.7533    2.3084    2.0950 C   0  0  2  0  0  0  0  0  0  0  0  0
    1.6960   -3.7114   -1.7527 C   0  0  0  0  0  0  0  0  0  0  0  0
   -3.3676    0.7595    0.4728 C   0  0  1  0  0  0  0  0  0  0  0  0
   -3.2964   -1.5624   -0.5017 C   0  0  0  0  0  0  0  0  0  0  0  0
    2.7098    0.8503    1.6062 C   0  0  0  0  0  0  0  0  0  0  0  0
    3.3083   -0.7825   -0.2340 C   0  0  0  0  0  0  0  0  0  0  0  0
    4.4723    1.4180    0.0033 C   0  0  0  0  0  0  0  0  0  0  0  0
   -1.2655   -1.7428   -1.9622 C   0  0  1  0  0  0  0  0  0  0  0  0
   -1.6815    2.2560    1.6170 C   0  0  1  0  0  0  0  0  0  0  0  0
    3.6549    1.7188    1.1615 C   0  0  0  0  0  0  0  0  0  0  0  0
   -2.1442    1.6338    0.3436 C   0  0  2  0  0  0  0  0  0  0  0  0
    2.5047   -0.4164    0.9497 C   0  0  0  0  0  0  0  0  0  0  0  0
   -2.7793   -1.4561   -1.8952 C   0  0  1  0  0  0  0  0  0  0  0  0
    2.8542   -2.8363   -1.7345 C   0  0  0  0  0  0  0  0  0  0  0  0
   -4.8462   -2.2580   -2.8826 C   0  0  0  0  0  0  0  0  0  0  0  0
   -5.3736   -1.0881   -3.0242 N   0  0  0  0  0  0  0  0  0  0  0  0
    3.9559    2.9423    1.8574 N   0  0  0  0  0  0  0  0  0  0  0  0
    3.2571   -1.9284   -1.0204 N   0  0  0  0  0  0  0  0  0  0  0  0
    5.3342    2.2412   -0.3984 O   0  0  0  0  0  0  0  0  0  0  0  0
   -2.5401    2.7048   -0.5151 O   0  0  0  0  0  0  0  0  0  0  0  0
    1.6084   -1.2999    1.3774 O   0  0  0  0  0  0  0  0  0  0  0  0
    3.7687   -3.1354   -2.8729 O   0  0  0  0  0  0  0  0  0  0  0  0
   -5.6952   -3.3922   -2.9065 O   0  0  0  0  0  0  0  0  0  0  0  0
   -0.6269   -0.6966   -2.6449 O   0  0  0  0  0  0  0  0  0  0  0  0
   -2.7655    2.3455    2.4914 O   0  0  0  0  0  0  0  0  0  0  0  0
   -3.4800   -2.3586   -2.7141 O   0  0  0  0  0  0  0  0  0  0  0  0
    6.7020    0.5158    4.2879 H   0  0  0  0  0  0  0  0  0  0  0  0
    7.0798    1.1158    2.6018 H   0  0  0  0  0  0  0  0  0  0  0  0
    1.3121    1.6223    0.0918 H   0  0  0  0  0  0  0  0  0  0  0  0
    0.0590    2.8652    0.1009 H   0  0  0  0  0  0  0  0  0  0  0  0
    1.7026    3.3690    0.3992 H   0  0  0  0  0  0  0  0  0  0  0  0
    2.6968   -5.0472   -3.1048 H   0  0  0  0  0  0  0  0  0  0  0  0
    1.3806   -4.1116   -3.8823 H   0  0  0  0  0  0  0  0  0  0  0  0
    0.9889   -5.4963   -2.8357 H   0  0  0  0  0  0  0  0  0  0  0  0
   -5.1382    0.4063   -0.6725 H   0  0  0  0  0  0  0  0  0  0  0  0
   -3.9336    1.5453   -1.5007 H   0  0  0  0  0  0  0  0  0  0  0  0
   -4.9656    2.1084   -0.1759 H   0  0  0  0  0  0  0  0  0  0  0  0
   -5.1941   -2.6289   -0.2972 H   0  0  0  0  0  0  0  0  0  0  0  0
   -3.8398   -3.6159   -0.8759 H   0  0  0  0  0  0  0  0  0  0  0  0
   -3.9594   -3.0954    0.9021 H   0  0  0  0  0  0  0  0  0  0  0  0
    0.6421   -1.8981   -3.8018 H   0  0  0  0  0  0  0  0  0  0  0  0
    0.3346   -0.2575   -4.4325 H   0  0  0  0  0  0  0  0  0  0  0  0
   -0.9408   -1.5114   -4.5203 H   0  0  0  0  0  0  0  0  0  0  0  0
   -3.3744    4.2592    1.8764 H   0  0  0  0  0  0  0  0  0  0  0  0
   -3.8296    3.7365    3.5850 H   0  0  0  0  0  0  0  0  0  0  0  0
   -2.1694    4.2117    3.1594 H   0  0  0  0  0  0  0  0  0  0  0  0
    4.9499    2.1831    4.5265 H   0  0  0  0  0  0  0  0  0  0  0  0
   -0.4778   -3.3602    0.8158 H   0  0  0  0  0  0  0  0  0  0  0  0
    0.4193   -5.0279   -0.7399 H   0  0  0  0  0  0  0  0  0  0  0  0
   -0.7619   -1.0980    0.0713 H   0  0  0  0  0  0  0  0  0  0  0  0
    5.4360    4.1235    2.8175 H   0  0  0  0  0  0  0  0  0  0  0  0
    6.0451    2.8829    1.6796 H   0  0  0  0  0  0  0  0  0  0  0  0
    2.5351    2.3727    3.1726 H   0  0  0  0  0  0  0  0  0  0  0  0
    1.6782    0.9729    3.6073 H   0  0  0  0  0  0  0  0  0  0  0  0
   -0.7217    1.3744    3.2862 H   0  0  0  0  0  0  0  0  0  0  0  0
   -0.3480    0.5566    1.6796 H   0  0  0  0  0  0  0  0  0  0  0  0
   -2.7380   -1.1010    1.4210 H   0  0  0  0  0  0  0  0  0  0  0  0
    4.8797   -0.0324   -1.5039 H   0  0  0  0  0  0  0  0  0  0  0  0
    0.5917    3.2699    2.5767 H   0  0  0  0  0  0  0  0  0  0  0  0
   -3.8179    1.0687    1.4702 H   0  0  0  0  0  0  0  0  0  0  0  0
   -1.1573   -2.6463   -2.5763 H   0  0  0  0  0  0  0  0  0  0  0  0
   -1.4103    3.3325    1.3970 H   0  0  0  0  0  0  0  0  0  0  0  0
   -1.3836    1.1054   -0.2360 H   0  0  0  0  0  0  0  0  0  0  0  0
   -2.8928   -0.4533   -2.3115 H   0  0  0  0  0  0  0  0  0  0  0  0
   -4.7639   -0.2557   -3.0086 H   0  0  0  0  0  0  0  0  0  0  0  0
    3.3233    3.7407    1.9757 H   0  0  0  0  0  0  0  0  0  0  0  0
   -2.2423    3.5637   -0.1674 H   0  0  0  0  0  0  0  0  0  0  0  0
    3.3538   -2.8576   -3.7673 H   0  0  0  0  0  0  0  0  0  0  0  0
   -6.5606   -3.2499   -2.3655 H   0  0  0  0  0  0  0  0  0  0  0  0
  1  8  2  3
  9 10  1  0
  9 11  2  0
  8 12  1  0
 17  2  1  0
 13 17  1  0
 14 17  1  0
  3 18  1  0
 10 18  2  0
 19  4  1  0
 15 19  1  0
  5 20  1  0
 15 20  2  0
 13 21  1  0
 16 22  2  0
 16 23  1  0
 11 24  1  0
 14 25  1  0
 21 26  2  0
 23 26  1  0
 19 27  1  0
 25 27  1  0
 21 28  1  0
 22 28  1  0
 20 29  1  0
 24 29  1  0
 18 30  1  0
 31 32  2  3
 12 33  1  0
 26 33  1  0
 22 34  1  0
 30 34  2  0
 23 35  2  0
 27 36  1  0
 28 37  2  0
 30 38  1  0
 31 39  1  0
  6 40  1  0
 24 40  1  0
  7 41  1  0
 25 41  1  0
 29 42  1  0
 31 42  1  0
  1 43  1  0
  1 44  1  0
  2 45  1  0
  2 46  1  0
  2 47  1  0
  3 48  1  0
  3 49  1  0
  3 50  1  0
  4 51  1  0
  4 52  1  0
  4 53  1  0
  5 54  1  0
  5 55  1  0
  5 56  1  0
  6 57  1  0
  6 58  1  0
  6 59  1  0
  7 60  1  0
  7 61  1  0
  7 62  1  0
  8 63  1  0
  9 64  1  0
 10 65  1  0
 11 66  1  0
 12 67  1  0
 12 68  1  0
 13 69  1  0
 13 70  1  0
 14 71  1  0
 14 72  1  0
 15 73  1  0
 16 74  1  0
 17 75  1  1
 19 76  1  1
 24 77  1  6
 25 78  1  6
 27 79  1  6
 29 80  1  6
 32 81  1  0
 33 82  1  0
 36 83  1  0
 38 84  1  0
 39 85  1  0
M  END

