347828507
     RDKit          3D

 67 71  0  0  1  0  0  0  0  0999 V2000
   -4.6665    0.3372    0.1673 C   0  0  1  0  0  0  0  0  0  0  0  0
   -5.0180   -1.0632   -0.3159 C   0  0  0  0  0  0  0  0  0  0  0  0
   -3.8965   -1.9391   -0.1694 N   0  0  0  0  0  0  0  0  0  0  0  0
   -3.7317    0.8813   -0.9753 C   0  0  0  0  0  0  0  0  0  0  0  0
   -2.5272   -1.6306   -0.0975 C   0  0  0  0  0  0  0  0  0  0  0  0
   -2.3405    0.8541   -0.4283 C   0  0  0  0  0  0  0  0  0  0  0  0
   -1.7733   -0.5294   -0.6573 C   0  0  1  0  0  0  0  0  0  0  0  0
   -7.4092    2.6364   -0.9256 C   0  0  0  0  0  0  0  0  0  0  0  0
   -7.7103    3.2601    0.2573 C   0  0  0  0  0  0  0  0  0  0  0  0
   -7.0672    2.8992    1.4523 C   0  0  0  0  0  0  0  0  0  0  0  0
   -6.1393    1.9189    1.3744 C   0  0  0  0  0  0  0  0  0  0  0  0
   -5.8075    1.2590    0.1697 C   0  0  0  0  0  0  0  0  0  0  0  0
   -6.4702    1.6402   -0.9954 C   0  0  0  0  0  0  0  0  0  0  0  0
   -7.4029    3.5119    2.6140 F   0  0  0  0  0  0  0  0  0  0  0  0
   -5.4852    1.5145    2.5030 F   0  0  0  0  0  0  0  0  0  0  0  0
   -0.4050   -0.4954   -0.0839 N   0  0  0  0  0  0  0  0  0  0  0  0
    0.6285    0.0945   -0.8071 C   0  0  0  0  0  0  0  0  0  0  0  0
    1.9633    0.1715   -0.3114 N   0  0  0  0  0  0  0  0  0  0  0  0
    0.3573    0.5851   -1.9615 O   0  0  0  0  0  0  0  0  0  0  0  0
    2.9938    0.8889   -1.0297 C   0  0  0  0  0  0  0  0  0  0  0  0
    4.2445    0.0473   -1.0843 C   0  0  0  0  0  0  0  0  0  0  0  0
    4.7456   -0.3605    0.2255 C   0  0  0  0  0  0  0  0  0  0  0  0
    3.7424   -0.4175    1.3173 C   0  0  0  0  0  0  0  0  0  0  0  0
    2.3189   -0.4781    0.8992 C   0  0  0  0  0  0  0  0  0  0  0  0
    5.8511    0.4812    0.6036 N   0  0  0  0  0  0  0  0  0  0  0  0
   -1.8200   -2.4606    0.5861 O   0  0  0  0  0  0  0  0  0  0  0  0
   -4.2460   -3.3297   -0.0784 C   0  0  0  0  0  0  0  0  0  0  0  0
   -4.4132   -3.9347   -1.4594 C   0  0  0  0  0  0  0  0  0  0  0  0
   -3.2960   -3.8625   -2.2287 F   0  0  0  0  0  0  0  0  0  0  0  0
   -5.5634   -3.4416   -2.0844 F   0  0  0  0  0  0  0  0  0  0  0  0
   -4.6653   -5.3078   -1.2527 F   0  0  0  0  0  0  0  0  0  0  0  0
    7.1212    2.0640    1.3291 N   0  0  0  0  0  0  0  0  0  0  0  0
    5.8421    1.6753    1.1932 C   0  0  0  0  0  0  0  0  0  0  0  0
    7.9682    1.1391    0.8390 C   0  0  0  0  0  0  0  0  0  0  0  0
    7.1623    0.1314    0.3767 C   0  0  0  0  0  0  0  0  0  0  0  0
    7.7454   -0.9798   -0.2098 C   0  0  0  0  0  0  0  0  0  0  0  0
    9.0957   -1.0392   -0.3058 C   0  0  0  0  0  0  0  0  0  0  0  0
    9.9076   -0.0085    0.1698 C   0  0  0  0  0  0  0  0  0  0  0  0
    9.2994    1.0454    0.7259 N   0  0  0  0  0  0  0  0  0  0  0  0
    4.8238    2.3797    1.5784 O   0  0  0  0  0  0  0  0  0  0  0  0
   -4.1692    0.3302    1.1096 H   0  0  0  0  0  0  0  0  0  0  0  0
   -5.7867   -1.4766    0.4294 H   0  0  0  0  0  0  0  0  0  0  0  0
   -5.3897   -1.0477   -1.3379 H   0  0  0  0  0  0  0  0  0  0  0  0
   -3.8625    0.1216   -1.8288 H   0  0  0  0  0  0  0  0  0  0  0  0
   -4.0821    1.8173   -1.4033 H   0  0  0  0  0  0  0  0  0  0  0  0
   -1.6654    1.5415   -0.9951 H   0  0  0  0  0  0  0  0  0  0  0  0
   -2.2810    1.1701    0.6212 H   0  0  0  0  0  0  0  0  0  0  0  0
   -1.6081   -0.5585   -1.7774 H   0  0  0  0  0  0  0  0  0  0  0  0
   -7.8879    2.9315   -1.8892 H   0  0  0  0  0  0  0  0  0  0  0  0
   -8.4753    4.0578    0.2518 H   0  0  0  0  0  0  0  0  0  0  0  0
   -6.2634    1.1675   -1.9765 H   0  0  0  0  0  0  0  0  0  0  0  0
   -0.2479   -0.9253    0.8652 H   0  0  0  0  0  0  0  0  0  0  0  0
    2.5641    1.0300   -2.0684 H   0  0  0  0  0  0  0  0  0  0  0  0
    3.1516    1.9258   -0.6453 H   0  0  0  0  0  0  0  0  0  0  0  0
    4.9786    0.6739   -1.6710 H   0  0  0  0  0  0  0  0  0  0  0  0
    4.0091   -0.7779   -1.7851 H   0  0  0  0  0  0  0  0  0  0  0  0
    5.1594   -1.4098    0.1049 H   0  0  0  0  0  0  0  0  0  0  0  0
    3.8893    0.4162    2.0196 H   0  0  0  0  0  0  0  0  0  0  0  0
    3.9023   -1.3517    1.9428 H   0  0  0  0  0  0  0  0  0  0  0  0
    1.6628   -0.0505    1.7216 H   0  0  0  0  0  0  0  0  0  0  0  0
    1.9475   -1.5454    0.8420 H   0  0  0  0  0  0  0  0  0  0  0  0
   -5.1479   -3.5061    0.5300 H   0  0  0  0  0  0  0  0  0  0  0  0
   -3.4051   -3.9001    0.4250 H   0  0  0  0  0  0  0  0  0  0  0  0
    7.4087    2.9738    1.7644 H   0  0  0  0  0  0  0  0  0  0  0  0
    7.0753   -1.7590   -0.5654 H   0  0  0  0  0  0  0  0  0  0  0  0
    9.5747   -1.9073   -0.7548 H   0  0  0  0  0  0  0  0  0  0  0  0
   10.9920   -0.0791    0.0773 H   0  0  0  0  0  0  0  0  0  0  0  0
 18 20  1  0
  9 10  2  0
  2  3  1  0
 10 11  1  0
  4  6  1  0
 11 12  2  0
 18 24  1  0
 20 21  1  0
 21 22  1  0
 22 23  1  0
 23 24  1  0
  1  2  1  0
 22 25  1  0
 12 13  1  0
  5 26  2  0
  8 13  2  0
  3 27  1  0
  5  7  1  0
 27 28  1  0
 10 14  1  0
 28 29  1  0
  6  7  1  0
 28 30  1  0
 11 15  1  0
 28 31  1  0
 25 35  1  0
  1 12  1  0
  1  4  1  0
 32 34  1  0
 32 33  1  0
 25 33  1  0
  7 16  1  0
 34 35  2  0
 16 17  1  0
 35 36  1  0
  8  9  1  0
 36 37  2  0
 17 18  1  0
 37 38  1  0
  3  5  1  0
 38 39  2  0
 34 39  1  0
 17 19  2  0
 33 40  2  0
  1 41  1  1
  2 42  1  0
  2 43  1  0
  4 44  1  0
  4 45  1  0
  6 46  1  0
  6 47  1  0
  7 48  1  6
  8 49  1  0
  9 50  1  0
 13 51  1  0
 16 52  1  0
 20 53  1  0
 20 54  1  0
 21 55  1  0
 21 56  1  0
 22 57  1  0
 23 58  1  0
 23 59  1  0
 24 60  1  0
 24 61  1  0
 27 62  1  0
 27 63  1  0
 32 64  1  0
 36 65  1  0
 37 66  1  0
 38 67  1  0
M  END

