347829334
     RDKit          3D

 53 57  0  0  0  0  0  0  0  0999 V2000
    3.2005    0.9344   -0.0757 C   0  0  0  0  0  0  0  0  0  0  0  0
    2.4076    0.2927   -0.9312 N   0  0  0  0  0  0  0  0  0  0  0  0
    4.1227    0.0049    0.4603 C   0  0  0  0  0  0  0  0  0  0  0  0
    3.2995    2.2446    0.3262 C   0  0  0  0  0  0  0  0  0  0  0  0
    2.8182   -1.0038   -0.9347 C   0  0  0  0  0  0  0  0  0  0  0  0
    1.2987    0.7558   -1.6834 C   0  0  0  0  0  0  0  0  0  0  0  0
    3.8329   -1.1835   -0.1132 N   0  0  0  0  0  0  0  0  0  0  0  0
    5.1040    0.3553    1.3590 C   0  0  0  0  0  0  0  0  0  0  0  0
    4.3193    2.5694    1.2491 C   0  0  0  0  0  0  0  0  0  0  0  0
    2.4231    3.2815   -0.1042 C   0  0  0  0  0  0  0  0  0  0  0  0
    2.2481   -2.0021   -1.6975 O   0  0  0  0  0  0  0  0  0  0  0  0
    0.0191    0.4159   -1.0234 C   0  0  0  0  0  0  0  0  0  0  0  0
    5.1942    1.6560    1.7509 C   0  0  0  0  0  0  0  0  0  0  0  0
    2.9695    4.6120   -0.0879 O   0  0  0  0  0  0  0  0  0  0  0  0
    1.2836    3.2398   -0.4883 O   0  0  0  0  0  0  0  0  0  0  0  0
    2.7142   -3.3306   -1.6610 C   0  0  0  0  0  0  0  0  0  0  0  0
   -1.0366   -0.2017   -1.7085 C   0  0  0  0  0  0  0  0  0  0  0  0
   -0.2045    0.6327    0.3061 C   0  0  0  0  0  0  0  0  0  0  0  0
    4.1636   -3.4147   -2.0819 C   0  0  0  0  0  0  0  0  0  0  0  0
   -2.2128   -0.5700   -1.1175 C   0  0  0  0  0  0  0  0  0  0  0  0
   -1.3982    0.2670    0.9395 C   0  0  0  0  0  0  0  0  0  0  0  0
   -2.4149   -0.3375    0.2373 C   0  0  0  0  0  0  0  0  0  0  0  0
   -3.6629   -0.7738    0.8301 C   0  0  0  0  0  0  0  0  0  0  0  0
   -4.8550   -0.1191    0.6869 C   0  0  0  0  0  0  0  0  0  0  0  0
   -3.5830   -1.9732    1.5481 C   0  0  0  0  0  0  0  0  0  0  0  0
   -4.9838    1.1444    0.0002 C   0  0  0  0  0  0  0  0  0  0  0  0
   -6.0120   -0.6798    1.2781 C   0  0  0  0  0  0  0  0  0  0  0  0
   -4.7068   -2.5090    2.1179 C   0  0  0  0  0  0  0  0  0  0  0  0
   -4.1093    1.9925   -0.5024 N   0  0  0  0  0  0  0  0  0  0  0  0
   -6.1970    1.7118   -0.2936 N   0  0  0  0  0  0  0  0  0  0  0  0
   -5.9064   -1.8496    1.9716 C   0  0  0  0  0  0  0  0  0  0  0  0
   -4.7336    3.0399   -1.0839 N   0  0  0  0  0  0  0  0  0  0  0  0
   -6.0183    2.8420   -0.9409 N   0  0  0  0  0  0  0  0  0  0  0  0
    1.2847    0.0320   -2.6170 H   0  0  0  0  0  0  0  0  0  0  0  0
    1.3577    1.6894   -2.2176 H   0  0  0  0  0  0  0  0  0  0  0  0
    5.7824   -0.3712    1.7443 H   0  0  0  0  0  0  0  0  0  0  0  0
    4.3612    3.6116    1.5396 H   0  0  0  0  0  0  0  0  0  0  0  0
    5.9688    1.9903    2.4738 H   0  0  0  0  0  0  0  0  0  0  0  0
    2.4518    5.2758    0.4789 H   0  0  0  0  0  0  0  0  0  0  0  0
    2.6222   -3.7978   -0.6607 H   0  0  0  0  0  0  0  0  0  0  0  0
    2.1153   -3.9152   -2.4013 H   0  0  0  0  0  0  0  0  0  0  0  0
   -0.8627   -0.3775   -2.7734 H   0  0  0  0  0  0  0  0  0  0  0  0
    0.5406    1.0927    0.9405 H   0  0  0  0  0  0  0  0  0  0  0  0
    4.3146   -4.3842   -2.6135 H   0  0  0  0  0  0  0  0  0  0  0  0
    4.8609   -3.4164   -1.2062 H   0  0  0  0  0  0  0  0  0  0  0  0
    4.4160   -2.5622   -2.7428 H   0  0  0  0  0  0  0  0  0  0  0  0
   -2.9732   -1.0414   -1.7242 H   0  0  0  0  0  0  0  0  0  0  0  0
   -1.5426    0.4573    2.0096 H   0  0  0  0  0  0  0  0  0  0  0  0
   -2.6166   -2.4491    1.6321 H   0  0  0  0  0  0  0  0  0  0  0  0
   -6.9233   -0.1477    1.1489 H   0  0  0  0  0  0  0  0  0  0  0  0
   -4.6336   -3.4334    2.6689 H   0  0  0  0  0  0  0  0  0  0  0  0
   -3.0848    1.9468   -0.4852 H   0  0  0  0  0  0  0  0  0  0  0  0
   -6.8224   -2.2437    2.4093 H   0  0  0  0  0  0  0  0  0  0  0  0
  1  2  1  0
  1  3  1  0
  1  4  2  0
  2  5  1  0
  2  6  1  0
  3  7  1  0
  3  8  2  0
  4  9  1  0
  4 10  1  0
  5 11  1  0
  6 12  1  0
  8 13  1  0
 10 14  1  0
 10 15  2  0
 11 16  1  0
 12 17  2  0
 12 18  1  0
 16 19  1  0
 17 20  1  0
 18 21  2  0
 20 22  2  0
 22 23  1  0
 23 24  1  0
 23 25  2  0
 24 26  1  0
 24 27  2  0
 25 28  1  0
 26 29  1  0
 26 30  2  0
 27 31  1  0
 29 32  1  0
 30 33  1  0
  5  7  2  0
  9 13  2  0
 21 22  1  0
 28 31  2  0
 32 33  2  0
  6 34  1  0
  6 35  1  0
  8 36  1  0
  9 37  1  0
 13 38  1  0
 14 39  1  0
 16 40  1  0
 16 41  1  0
 17 42  1  0
 18 43  1  0
 19 44  1  0
 19 45  1  0
 19 46  1  0
 20 47  1  0
 21 48  1  0
 25 49  1  0
 27 50  1  0
 28 51  1  0
 29 52  1  0
 31 53  1  0
M  END

