347828805
     RDKit          3D

 51 53  0  0  0  0  0  0  0  0999 V2000
    0.4076   -1.4470    0.6176 C   0  0  0  0  0  0  0  0  0  0  0  0
    1.7735   -1.4097    0.4722 C   0  0  0  0  0  0  0  0  0  0  0  0
    2.5071   -0.2175    0.5332 C   0  0  0  0  0  0  0  0  0  0  0  0
    1.7195    0.9473    0.7634 C   0  0  0  0  0  0  0  0  0  0  0  0
    0.3782    0.8972    0.9044 C   0  0  0  0  0  0  0  0  0  0  0  0
   -0.3241   -0.3220    0.8318 C   0  0  0  0  0  0  0  0  0  0  0  0
   -1.7871   -0.2397    0.9740 C   0  0  0  0  0  0  0  0  0  0  0  0
   -2.5787   -0.8590   -0.0360 N   0  0  0  0  0  0  0  0  0  0  0  0
   -2.8845    0.0395   -1.1043 C   0  0  0  0  0  0  0  0  0  0  0  0
   -3.6822    1.2241   -0.7586 C   0  0  0  0  0  0  0  0  0  0  0  0
   -5.0351    1.0884   -0.2043 C   0  0  0  0  0  0  0  0  0  0  0  0
   -6.0266    0.3679   -1.1097 C   0  0  0  0  0  0  0  0  0  0  0  0
   -7.3976    0.9394   -0.6917 C   0  0  0  0  0  0  0  0  0  0  0  0
   -7.3448    1.3003    0.6460 O   0  0  0  0  0  0  0  0  0  0  0  0
   -6.6527    0.3955    1.4496 C   0  0  0  0  0  0  0  0  0  0  0  0
   -5.1388    0.4155    1.1310 C   0  0  0  0  0  0  0  0  0  0  0  0
    2.4072    2.1240    0.8296 F   0  0  0  0  0  0  0  0  0  0  0  0
    3.7832   -0.1307    0.3924 O   0  0  0  0  0  0  0  0  0  0  0  0
    5.0432   -0.1720    0.2325 C   0  0  0  0  0  0  0  0  0  0  0  0
    5.7153   -1.3700   -0.0782 C   0  0  0  0  0  0  0  0  0  0  0  0
    7.0663   -1.4090   -0.2516 C   0  0  0  0  0  0  0  0  0  0  0  0
    7.8022   -0.2513   -0.1206 C   0  0  0  0  0  0  0  0  0  0  0  0
    7.1523    0.9307    0.1833 C   0  0  0  0  0  0  0  0  0  0  0  0
    5.8411    0.9493    0.3450 N   0  0  0  0  0  0  0  0  0  0  0  0
    9.2490   -0.2801   -0.2987 C   0  0  0  0  0  0  0  0  0  0  0  0
    9.8215    0.7055   -0.8031 O   0  0  0  0  0  0  0  0  0  0  0  0
   10.0406   -1.3792    0.0803 N   0  0  0  0  0  0  0  0  0  0  0  0
   -0.1306   -2.4109    0.5563 H   0  0  0  0  0  0  0  0  0  0  0  0
    2.3491   -2.2917    0.3088 H   0  0  0  0  0  0  0  0  0  0  0  0
   -0.2355    1.7929    1.0772 H   0  0  0  0  0  0  0  0  0  0  0  0
   -2.1422    0.7908    1.1846 H   0  0  0  0  0  0  0  0  0  0  0  0
   -2.0946   -0.7955    1.9434 H   0  0  0  0  0  0  0  0  0  0  0  0
   -2.1339   -1.7436   -0.3305 H   0  0  0  0  0  0  0  0  0  0  0  0
   -3.4355   -0.5711   -1.8647 H   0  0  0  0  0  0  0  0  0  0  0  0
   -1.9353    0.3157   -1.6269 H   0  0  0  0  0  0  0  0  0  0  0  0
   -3.1230    1.9628   -0.1062 H   0  0  0  0  0  0  0  0  0  0  0  0
   -3.7902    1.8273   -1.7236 H   0  0  0  0  0  0  0  0  0  0  0  0
   -5.4388    2.1434   -0.0592 H   0  0  0  0  0  0  0  0  0  0  0  0
   -6.0632   -0.6958   -0.8834 H   0  0  0  0  0  0  0  0  0  0  0  0
   -5.7989    0.6194   -2.1387 H   0  0  0  0  0  0  0  0  0  0  0  0
   -7.4564    1.9044   -1.2738 H   0  0  0  0  0  0  0  0  0  0  0  0
   -8.2135    0.2434   -0.9288 H   0  0  0  0  0  0  0  0  0  0  0  0
   -6.8067    0.7424    2.4895 H   0  0  0  0  0  0  0  0  0  0  0  0
   -7.0870   -0.5899    1.2855 H   0  0  0  0  0  0  0  0  0  0  0  0
   -4.6018    0.9107    1.9374 H   0  0  0  0  0  0  0  0  0  0  0  0
   -4.8119   -0.6337    1.0299 H   0  0  0  0  0  0  0  0  0  0  0  0
    5.0805   -2.2486   -0.1679 H   0  0  0  0  0  0  0  0  0  0  0  0
    7.5463   -2.3495   -0.5041 H   0  0  0  0  0  0  0  0  0  0  0  0
    7.7740    1.8370    0.2872 H   0  0  0  0  0  0  0  0  0  0  0  0
   10.4998   -1.4103    1.0147 H   0  0  0  0  0  0  0  0  0  0  0  0
   10.1936   -2.1868   -0.5566 H   0  0  0  0  0  0  0  0  0  0  0  0
  1  2  2  0
  2  3  1  0
  3  4  2  0
  4  5  1  0
  5  6  2  0
  1  6  1  0
  6  7  1  0
  7  8  1  0
  8  9  1  0
  9 10  1  0
 10 11  1  0
 11 12  1  0
 12 13  1  0
 13 14  1  0
 14 15  1  0
 15 16  1  0
 11 16  1  0
  4 17  1  0
  3 18  1  0
 18 19  1  0
 19 20  2  0
 20 21  1  0
 21 22  2  0
 22 23  1  0
 23 24  2  0
 19 24  1  0
 22 25  1  0
 25 26  2  0
 25 27  1  0
  1 28  1  0
  2 29  1  0
  5 30  1  0
  7 31  1  0
  7 32  1  0
  8 33  1  0
  9 34  1  0
  9 35  1  0
 10 36  1  0
 10 37  1  0
 11 38  1  0
 12 39  1  0
 12 40  1  0
 13 41  1  0
 13 42  1  0
 15 43  1  0
 15 44  1  0
 16 45  1  0
 16 46  1  0
 20 47  1  0
 21 48  1  0
 23 49  1  0
 27 50  1  0
 27 51  1  0
M  END

