347828656
     RDKit          3D

 72 78  0  0  1  0  0  0  0  0999 V2000
    9.6902   -1.4191    2.5563 C   0  0  0  0  0  0  0  0  0  0  0  0
    8.9103   -2.3734    1.9310 C   0  0  0  0  0  0  0  0  0  0  0  0
    7.7807   -2.0477    1.1913 C   0  0  0  0  0  0  0  0  0  0  0  0
    7.4494   -0.7233    1.0938 C   0  0  0  0  0  0  0  0  0  0  0  0
    8.2307    0.2310    1.7201 C   0  0  0  0  0  0  0  0  0  0  0  0
    9.3491   -0.0941    2.4521 C   0  0  0  0  0  0  0  0  0  0  0  0
    7.9630    1.7040    1.6806 C   0  0  0  0  0  0  0  0  0  0  0  0
    6.4829    1.8742    2.0094 C   0  0  0  0  0  0  0  0  0  0  0  0
    5.7357    1.9580    0.7193 C   0  0  0  0  0  0  0  0  0  0  0  0
    5.5009    0.6053    0.1212 C   0  0  0  0  0  0  0  0  0  0  0  0
    6.2439   -0.5459    0.2874 C   0  0  0  0  0  0  0  0  0  0  0  0
    5.8598   -1.6703   -0.3450 N   0  0  0  0  0  0  0  0  0  0  0  0
    4.7807   -1.7085   -1.1298 N   0  0  0  0  0  0  0  0  0  0  0  0
    4.0080   -0.6187   -1.3367 C   0  0  0  0  0  0  0  0  0  0  0  0
    4.4032    0.5425   -0.6847 C   0  0  0  0  0  0  0  0  0  0  0  0
    2.8659   -0.6750   -2.1719 N   0  0  0  0  0  0  0  0  0  0  0  0
    2.8943   -0.7316   -3.5143 C   0  0  0  0  0  0  0  0  0  0  0  0
    1.6310   -0.7740   -3.9528 N   0  0  0  0  0  0  0  0  0  0  0  0
    0.7874   -0.7435   -2.8675 C   0  0  0  0  0  0  0  0  0  0  0  0
    1.6148   -0.6833   -1.8177 N   0  0  0  0  0  0  0  0  0  0  0  0
   -0.6042   -0.7785   -3.0166 N   0  0  0  0  0  0  0  0  0  0  0  0
   -1.5202   -0.7484   -1.9492 C   0  0  0  0  0  0  0  0  0  0  0  0
   -1.1477   -0.6364   -0.6287 C   0  0  0  0  0  0  0  0  0  0  0  0
   -2.0753   -0.6122    0.4048 C   0  0  0  0  0  0  0  0  0  0  0  0
   -3.4178   -0.7030    0.1059 C   0  0  0  0  0  0  0  0  0  0  0  0
   -3.8430   -0.8169   -1.2024 C   0  0  0  0  0  0  0  0  0  0  0  0
   -2.9015   -0.8374   -2.1935 C   0  0  0  0  0  0  0  0  0  0  0  0
   -5.2333   -0.9303   -1.7684 C   0  0  0  0  0  0  0  0  0  0  0  0
   -6.2219   -0.9313   -0.6271 C   0  0  0  0  0  0  0  0  0  0  0  0
   -6.2032    0.4169    0.0559 C   0  0  2  0  0  0  0  0  0  0  0  0
   -5.2265    0.4971    1.1791 C   0  0  0  0  0  0  0  0  0  0  0  0
   -4.2885   -0.6654    1.2941 C   0  0  0  0  0  0  0  0  0  0  0  0
   -7.5517    0.7961    0.4163 N   0  0  0  0  0  0  0  0  0  0  0  0
   -7.5514    2.1099    0.9791 C   0  0  0  0  0  0  0  0  0  0  0  0
   -8.8557    2.1744    1.7407 C   0  0  0  0  0  0  0  0  0  0  0  0
   -9.0103    0.7729    2.2891 C   0  0  0  0  0  0  0  0  0  0  0  0
   -8.1212   -0.0948    1.4065 C   0  0  0  0  0  0  0  0  0  0  0  0
    4.0348   -0.7463   -4.3660 N   0  0  0  0  0  0  0  0  0  0  0  0
   10.5807   -1.6991    3.1373 H   0  0  0  0  0  0  0  0  0  0  0  0
    9.2064   -3.4081    2.0328 H   0  0  0  0  0  0  0  0  0  0  0  0
    7.1743   -2.7768    0.7063 H   0  0  0  0  0  0  0  0  0  0  0  0
    9.9183    0.7104    2.9188 H   0  0  0  0  0  0  0  0  0  0  0  0
    8.6062    2.2554    2.3685 H   0  0  0  0  0  0  0  0  0  0  0  0
    8.1850    2.0280    0.6346 H   0  0  0  0  0  0  0  0  0  0  0  0
    6.1054    0.9891    2.5864 H   0  0  0  0  0  0  0  0  0  0  0  0
    6.2889    2.7884    2.5956 H   0  0  0  0  0  0  0  0  0  0  0  0
    4.7588    2.4853    0.8256 H   0  0  0  0  0  0  0  0  0  0  0  0
    6.2949    2.5295   -0.0578 H   0  0  0  0  0  0  0  0  0  0  0  0
    3.8001    1.4088   -0.8410 H   0  0  0  0  0  0  0  0  0  0  0  0
   -1.0192   -0.8306   -3.9877 H   0  0  0  0  0  0  0  0  0  0  0  0
   -0.0969   -0.5603   -0.3391 H   0  0  0  0  0  0  0  0  0  0  0  0
   -1.7417   -0.5217    1.4480 H   0  0  0  0  0  0  0  0  0  0  0  0
   -3.2189   -0.9276   -3.2443 H   0  0  0  0  0  0  0  0  0  0  0  0
   -5.2980   -1.8278   -2.3837 H   0  0  0  0  0  0  0  0  0  0  0  0
   -5.3971    0.0211   -2.3321 H   0  0  0  0  0  0  0  0  0  0  0  0
   -7.2401   -1.0164   -1.1097 H   0  0  0  0  0  0  0  0  0  0  0  0
   -6.1371   -1.7846    0.0421 H   0  0  0  0  0  0  0  0  0  0  0  0
   -5.8795    1.1596   -0.7286 H   0  0  0  0  0  0  0  0  0  0  0  0
   -4.5844    1.4185    1.0957 H   0  0  0  0  0  0  0  0  0  0  0  0
   -5.7356    0.5826    2.1807 H   0  0  0  0  0  0  0  0  0  0  0  0
   -3.6298   -0.4360    2.1815 H   0  0  0  0  0  0  0  0  0  0  0  0
   -4.7675   -1.6208    1.5377 H   0  0  0  0  0  0  0  0  0  0  0  0
   -7.4980    2.8692    0.1755 H   0  0  0  0  0  0  0  0  0  0  0  0
   -6.7384    2.2822    1.6941 H   0  0  0  0  0  0  0  0  0  0  0  0
   -8.7692    2.9086    2.5578 H   0  0  0  0  0  0  0  0  0  0  0  0
   -9.6648    2.4170    1.0245 H   0  0  0  0  0  0  0  0  0  0  0  0
  -10.0686    0.4667    2.2466 H   0  0  0  0  0  0  0  0  0  0  0  0
   -8.6421    0.7229    3.3317 H   0  0  0  0  0  0  0  0  0  0  0  0
   -7.3738   -0.6180    2.0141 H   0  0  0  0  0  0  0  0  0  0  0  0
   -8.7854   -0.8375    0.9192 H   0  0  0  0  0  0  0  0  0  0  0  0
    4.3931    0.0974   -4.8562 H   0  0  0  0  0  0  0  0  0  0  0  0
    4.5306   -1.6483   -4.5013 H   0  0  0  0  0  0  0  0  0  0  0  0
  1  2  2  0
  2  3  1  0
  3  4  2  0
  4  5  1  0
  5  6  2  0
  1  6  1  0
  5  7  1  0
  7  8  1  0
  8  9  1  0
  9 10  1  0
 10 11  2  0
  4 11  1  0
 11 12  1  0
 12 13  2  0
 13 14  1  0
 14 15  2  0
 10 15  1  0
 14 16  1  0
 16 17  1  0
 17 18  2  0
 18 19  1  0
 19 20  2  0
 16 20  1  0
 19 21  1  0
 21 22  1  0
 22 23  2  0
 23 24  1  0
 24 25  2  0
 25 26  1  0
 26 27  2  0
 22 27  1  0
 26 28  1  0
 28 29  1  0
 29 30  1  0
 30 31  1  0
 31 32  1  0
 25 32  1  0
 30 33  1  0
 33 34  1  0
 34 35  1  0
 35 36  1  0
 36 37  1  0
 33 37  1  0
 17 38  1  0
  1 39  1  0
  2 40  1  0
  3 41  1  0
  6 42  1  0
  7 43  1  0
  7 44  1  0
  8 45  1  0
  8 46  1  0
  9 47  1  0
  9 48  1  0
 15 49  1  0
 21 50  1  0
 23 51  1  0
 24 52  1  0
 27 53  1  0
 28 54  1  0
 28 55  1  0
 29 56  1  0
 29 57  1  0
 30 58  1  6
 31 59  1  0
 31 60  1  0
 32 61  1  0
 32 62  1  0
 34 63  1  0
 34 64  1  0
 35 65  1  0
 35 66  1  0
 36 67  1  0
 36 68  1  0
 37 69  1  0
 37 70  1  0
 38 71  1  0
 38 72  1  0
M  END

