347828683
     RDKit          3D

 92 93  0  0  1  0  0  0  0  0999 V2000
    2.2717    0.3993   -0.8938 C   0  0  0  0  0  0  0  0  0  0  0  0
    1.0498    2.5959   -0.7441 C   0  0  0  0  0  0  0  0  0  0  0  0
    2.8316    0.6603    0.3193 C   0  0  0  0  0  0  0  0  0  0  0  0
    1.3490    1.3771   -1.4796 C   0  0  0  0  0  0  0  0  0  0  0  0
    0.2018    3.7122   -1.0052 N   0  0  0  0  0  0  0  0  0  0  0  0
    1.6499    2.7892    0.4752 C   0  0  0  0  0  0  0  0  0  0  0  0
    2.5596    1.8668    1.0845 C   0  0  0  0  0  0  0  0  0  0  0  0
   -1.1549    3.8128   -1.4713 C   0  0  0  0  0  0  0  0  0  0  0  0
   -3.4330   -0.3332    2.3099 C   0  0  0  0  0  0  0  0  0  0  0  0
   -2.4270   -1.1532    2.0659 C   0  0  0  0  0  0  0  0  0  0  0  0
   -4.1377    0.5103    1.3060 C   0  0  2  0  0  0  0  0  0  0  0  0
   -5.2180   -0.3848   -0.7180 C   0  0  0  0  0  0  0  0  0  0  0  0
   -2.0110    2.6220   -1.5703 C   0  0  0  0  0  0  0  0  0  0  0  0
   -2.2086   -1.9489    0.8352 C   0  0  1  0  0  0  0  0  0  0  0  0
   -4.1150   -0.0177    0.0244 O   0  0  0  0  0  0  0  0  0  0  0  0
    2.7348   -0.9236   -1.3522 C   0  0  0  0  0  0  0  0  0  0  0  0
   -0.8574   -2.6551    0.8654 C   0  0  2  0  0  0  0  0  0  0  0  0
   -0.2235   -2.8040   -0.4588 C   0  0  2  0  0  0  0  0  0  0  0  0
   -1.4465    1.3577    0.4863 C   0  0  0  0  0  0  0  0  0  0  0  0
    0.7973    1.1502   -2.6803 O   0  0  0  0  0  0  0  0  0  0  0  0
   -1.8110    1.5096   -0.9011 C   0  0  0  0  0  0  0  0  0  0  0  0
   -1.6853    4.9056   -1.8174 O   0  0  0  0  0  0  0  0  0  0  0  0
    3.0946    2.0783    2.2110 O   0  0  0  0  0  0  0  0  0  0  0  0
   -3.6054    1.9580    1.3739 C   0  0  2  0  0  0  0  0  0  0  0  0
    1.2652   -2.6322   -0.4870 C   0  0  0  0  0  0  0  0  0  0  0  0
    3.7885   -0.2420    0.9333 N   0  0  0  0  0  0  0  0  0  0  0  0
   -6.3633   -0.2365   -0.2030 O   0  0  0  0  0  0  0  0  0  0  0  0
   -2.1363    1.9730    1.4149 C   0  0  0  0  0  0  0  0  0  0  0  0
    1.7878   -1.9925   -1.7484 C   0  0  2  0  0  0  0  0  0  0  0  0
   -5.1297   -0.9242   -2.0386 N   0  0  0  0  0  0  0  0  0  0  0  0
   -0.9966   -3.8664    1.5684 O   0  0  0  0  0  0  0  0  0  0  0  0
   -0.8015   -1.8998   -1.3504 O   0  0  0  0  0  0  0  0  0  0  0  0
   -3.9296   -0.2107    3.7257 C   0  0  0  0  0  0  0  0  0  0  0  0
   -4.0822    2.4381    2.5843 O   0  0  0  0  0  0  0  0  0  0  0  0
   -3.1641    2.6807   -2.5048 C   0  0  0  0  0  0  0  0  0  0  0  0
   -3.2862   -3.0088    0.6820 C   0  0  0  0  0  0  0  0  0  0  0  0
    2.5285   -3.0660   -2.5408 C   0  0  0  0  0  0  0  0  0  0  0  0
   -1.4410   -2.5224   -2.4040 C   0  0  0  0  0  0  0  0  0  0  0  0
   -5.0118    3.4363    2.4823 C   0  0  0  0  0  0  0  0  0  0  0  0
    5.1714    0.1479    0.9475 C   0  0  0  0  0  0  0  0  0  0  0  0
    5.7085    0.1408   -0.4540 C   0  0  0  0  0  0  0  0  0  0  0  0
    7.1043    0.5396   -0.3976 N   0  0  0  0  0  0  0  0  0  0  0  0
    7.8503   -0.5083    0.2708 C   0  0  0  0  0  0  0  0  0  0  0  0
    7.1777    1.7941    0.3250 C   0  0  0  0  0  0  0  0  0  0  0  0
    0.5735    4.7303   -0.8090 H   0  0  0  0  0  0  0  0  0  0  0  0
    1.4619    3.7110    1.0657 H   0  0  0  0  0  0  0  0  0  0  0  0
   -1.6513   -1.2728    2.8552 H   0  0  0  0  0  0  0  0  0  0  0  0
   -5.1987    0.5838    1.6224 H   0  0  0  0  0  0  0  0  0  0  0  0
   -2.2177   -1.3577   -0.0981 H   0  0  0  0  0  0  0  0  0  0  0  0
    3.5342   -0.8238   -2.1389 H   0  0  0  0  0  0  0  0  0  0  0  0
    3.3520   -1.4772   -0.5536 H   0  0  0  0  0  0  0  0  0  0  0  0
   -0.2277   -2.0081    1.5497 H   0  0  0  0  0  0  0  0  0  0  0  0
   -0.4476   -3.8159   -0.8556 H   0  0  0  0  0  0  0  0  0  0  0  0
   -0.5677    0.7207    0.7678 H   0  0  0  0  0  0  0  0  0  0  0  0
   -1.9116    0.5769   -1.5005 H   0  0  0  0  0  0  0  0  0  0  0  0
   -4.0502    2.4612    0.4985 H   0  0  0  0  0  0  0  0  0  0  0  0
    1.5603   -2.0434    0.4332 H   0  0  0  0  0  0  0  0  0  0  0  0
    1.7526   -3.6178   -0.3525 H   0  0  0  0  0  0  0  0  0  0  0  0
    3.5108   -1.1368    1.3696 H   0  0  0  0  0  0  0  0  0  0  0  0
   -1.6190    2.4856    2.2128 H   0  0  0  0  0  0  0  0  0  0  0  0
    0.9732   -1.5474   -2.3564 H   0  0  0  0  0  0  0  0  0  0  0  0
   -5.6177   -1.8347   -2.2945 H   0  0  0  0  0  0  0  0  0  0  0  0
   -4.5950   -0.4615   -2.7984 H   0  0  0  0  0  0  0  0  0  0  0  0
   -0.5173   -4.6050    1.1007 H   0  0  0  0  0  0  0  0  0  0  0  0
   -5.0312   -0.1528    3.7643 H   0  0  0  0  0  0  0  0  0  0  0  0
   -3.4190    0.6878    4.1316 H   0  0  0  0  0  0  0  0  0  0  0  0
   -3.6284   -1.0650    4.3626 H   0  0  0  0  0  0  0  0  0  0  0  0
   -3.5069    1.6771   -2.8233 H   0  0  0  0  0  0  0  0  0  0  0  0
   -2.9760    3.3332   -3.3786 H   0  0  0  0  0  0  0  0  0  0  0  0
   -4.0019    3.1389   -1.9349 H   0  0  0  0  0  0  0  0  0  0  0  0
   -4.0346   -2.8409    1.4868 H   0  0  0  0  0  0  0  0  0  0  0  0
   -3.8524   -2.9000   -0.2668 H   0  0  0  0  0  0  0  0  0  0  0  0
   -2.8863   -4.0287    0.8304 H   0  0  0  0  0  0  0  0  0  0  0  0
    2.5023   -2.8520   -3.6301 H   0  0  0  0  0  0  0  0  0  0  0  0
    2.0776   -4.0666   -2.3628 H   0  0  0  0  0  0  0  0  0  0  0  0
    3.5572   -3.1060   -2.1249 H   0  0  0  0  0  0  0  0  0  0  0  0
   -0.7684   -3.1555   -3.0200 H   0  0  0  0  0  0  0  0  0  0  0  0
   -1.9169   -1.7269   -3.0151 H   0  0  0  0  0  0  0  0  0  0  0  0
   -2.2829   -3.1867   -2.0597 H   0  0  0  0  0  0  0  0  0  0  0  0
   -4.5525    4.2877    1.9486 H   0  0  0  0  0  0  0  0  0  0  0  0
   -5.2802    3.7466    3.5138 H   0  0  0  0  0  0  0  0  0  0  0  0
   -5.9325    3.0884    1.9545 H   0  0  0  0  0  0  0  0  0  0  0  0
    5.2980    1.1986    1.3377 H   0  0  0  0  0  0  0  0  0  0  0  0
    5.7826   -0.4809    1.6369 H   0  0  0  0  0  0  0  0  0  0  0  0
    5.0925    0.8070   -1.0749 H   0  0  0  0  0  0  0  0  0  0  0  0
    5.6287   -0.8746   -0.9250 H   0  0  0  0  0  0  0  0  0  0  0  0
    8.7137   -0.7686   -0.3711 H   0  0  0  0  0  0  0  0  0  0  0  0
    8.1712   -0.1280    1.2735 H   0  0  0  0  0  0  0  0  0  0  0  0
    7.2136   -1.4101    0.4692 H   0  0  0  0  0  0  0  0  0  0  0  0
    8.0819    2.3251   -0.0375 H   0  0  0  0  0  0  0  0  0  0  0  0
    7.2864    1.6044    1.4206 H   0  0  0  0  0  0  0  0  0  0  0  0
    6.3219    2.4552    0.1056 H   0  0  0  0  0  0  0  0  0  0  0  0
  1  3  2  0
  1  4  1  0
  1 16  1  0
  2  4  1  0
  2  5  1  0
  2  6  2  0
  3  7  1  0
  3 26  1  0
  4 20  2  0
  5  8  1  0
  6  7  1  0
  7 23  2  0
  8 13  1  0
  8 22  2  0
  9 10  2  0
  9 11  1  0
  9 33  1  0
 10 14  1  0
 11 15  1  0
 11 24  1  0
 12 15  1  0
 12 27  2  0
 12 30  1  0
 13 21  2  0
 13 35  1  0
 14 17  1  0
 14 36  1  0
 16 29  1  0
 17 18  1  0
 17 31  1  0
 18 25  1  0
 18 32  1  0
 19 21  1  0
 19 28  2  0
 24 28  1  0
 24 34  1  0
 25 29  1  0
 29 37  1  0
 32 38  1  0
 34 39  1  0
 26 40  1  0
 40 41  1  0
 41 42  1  0
 42 43  1  0
 42 44  1  0
  5 45  1  0
  6 46  1  0
 10 47  1  0
 11 48  1  1
 14 49  1  6
 16 50  1  0
 16 51  1  0
 17 52  1  1
 18 53  1  6
 19 54  1  0
 21 55  1  0
 24 56  1  6
 25 57  1  0
 25 58  1  0
 26 59  1  0
 28 60  1  0
 29 61  1  6
 30 62  1  0
 30 63  1  0
 31 64  1  0
 33 65  1  0
 33 66  1  0
 33 67  1  0
 35 68  1  0
 35 69  1  0
 35 70  1  0
 36 71  1  0
 36 72  1  0
 36 73  1  0
 37 74  1  0
 37 75  1  0
 37 76  1  0
 38 77  1  0
 38 78  1  0
 38 79  1  0
 39 80  1  0
 39 81  1  0
 39 82  1  0
 40 83  1  0
 40 84  1  0
 41 85  1  0
 41 86  1  0
 43 87  1  0
 43 88  1  0
 43 89  1  0
 44 90  1  0
 44 91  1  0
 44 92  1  0
M  END

