347829224
     RDKit          3D

 14 13  0  0  0  0  0  0  0  0999 V2000
   -0.1066    0.3790    0.9755 N   0  0  0  0  0  0  0  0  0  0  0  0
   -1.5779    0.4505   -0.8248 N   0  0  0  0  0  0  0  0  0  0  0  0
   -1.2043   -0.1314    0.2490 C   0  0  0  0  0  0  0  0  0  0  0  0
   -1.9048   -1.2749    0.6796 N   0  0  0  0  0  0  0  0  0  0  0  0
    1.1977    0.5253    0.4661 C   0  0  0  0  0  0  0  0  0  0  0  0
    1.6553    1.6783    0.1736 N   0  0  0  0  0  0  0  0  0  0  0  0
    1.9953   -0.6218    0.2824 N   0  0  0  0  0  0  0  0  0  0  0  0
   -0.3029    0.6639    1.9676 H   0  0  0  0  0  0  0  0  0  0  0  0
   -1.0746    1.2884   -1.1521 H   0  0  0  0  0  0  0  0  0  0  0  0
   -2.0563   -1.4215    1.6932 H   0  0  0  0  0  0  0  0  0  0  0  0
   -2.2720   -1.9723    0.0081 H   0  0  0  0  0  0  0  0  0  0  0  0
    1.0647    2.5423    0.3081 H   0  0  0  0  0  0  0  0  0  0  0  0
    1.6559   -1.4220   -0.3220 H   0  0  0  0  0  0  0  0  0  0  0  0
    2.9306   -0.6836    0.7468 H   0  0  0  0  0  0  0  0  0  0  0  0
  1  3  1  0
  1  5  1  0
  2  3  2  3
  3  4  1  0
  5  6  2  3
  5  7  1  0
  1  8  1  0
  2  9  1  0
  4 10  1  0
  4 11  1  0
  6 12  1  0
  7 13  1  0
  7 14  1  0
M  END

