347829008
     RDKit          3D

 38 38  0  0  0  0  0  0  0  0999 V2000
   -7.2908    0.8112    0.3797 C   0  0  0  0  0  0  0  0  0  0  0  0
   -5.9826    1.0291    0.6709 C   0  0  0  0  0  0  0  0  0  0  0  0
   -4.9761    0.2498    0.1071 C   0  0  0  0  0  0  0  0  0  0  0  0
   -5.3377   -0.7469   -0.7521 C   0  0  0  0  0  0  0  0  0  0  0  0
   -6.6586   -0.9585   -1.0394 N   0  0  0  0  0  0  0  0  0  0  0  0
   -7.6165   -0.2041   -0.4924 C   0  0  0  0  0  0  0  0  0  0  0  0
   -3.6520    0.5348    0.4703 N   0  0  0  0  0  0  0  0  0  0  0  0
   -2.5327   -0.0479   -0.1580 C   0  0  0  0  0  0  0  0  0  0  0  0
   -2.5427   -0.8723   -1.0995 O   0  0  0  0  0  0  0  0  0  0  0  0
   -1.1886    0.3867    0.3825 C   0  0  0  0  0  0  0  0  0  0  0  0
   -0.0954   -0.3202   -0.3886 C   0  0  0  0  0  0  0  0  0  0  0  0
    1.2237    0.1440    0.1852 C   0  0  0  0  0  0  0  0  0  0  0  0
    2.4030   -0.4943   -0.5047 C   0  0  0  0  0  0  0  0  0  0  0  0
    3.6526    0.0615    0.1714 C   0  0  0  0  0  0  0  0  0  0  0  0
    4.9048   -0.5016   -0.4303 C   0  0  0  0  0  0  0  0  0  0  0  0
    6.0756    0.0700    0.2612 C   0  0  0  0  0  0  0  0  0  0  0  0
    5.9078    0.8879    1.1896 O   0  0  0  0  0  0  0  0  0  0  0  0
    7.3792   -0.2991   -0.1171 N   0  0  0  0  0  0  0  0  0  0  0  0
    8.4311    0.2338    0.5262 O   0  0  0  0  0  0  0  0  0  0  0  0
   -8.0981    1.4224    0.8204 H   0  0  0  0  0  0  0  0  0  0  0  0
   -5.7375    1.8282    1.3561 H   0  0  0  0  0  0  0  0  0  0  0  0
   -4.6174   -1.3945   -1.2209 H   0  0  0  0  0  0  0  0  0  0  0  0
   -8.6820   -0.3670   -0.7176 H   0  0  0  0  0  0  0  0  0  0  0  0
   -3.4851    1.2290    1.2672 H   0  0  0  0  0  0  0  0  0  0  0  0
   -1.1901    0.1469    1.4450 H   0  0  0  0  0  0  0  0  0  0  0  0
   -1.1384    1.4647    0.2473 H   0  0  0  0  0  0  0  0  0  0  0  0
   -0.1673   -0.0085   -1.4579 H   0  0  0  0  0  0  0  0  0  0  0  0
   -0.2073   -1.4085   -0.3740 H   0  0  0  0  0  0  0  0  0  0  0  0
    1.2939    1.2357    0.0813 H   0  0  0  0  0  0  0  0  0  0  0  0
    1.2373   -0.1696    1.2492 H   0  0  0  0  0  0  0  0  0  0  0  0
    2.4359   -0.1981   -1.5821 H   0  0  0  0  0  0  0  0  0  0  0  0
    2.3761   -1.5946   -0.4451 H   0  0  0  0  0  0  0  0  0  0  0  0
    3.6783    1.1488    0.0870 H   0  0  0  0  0  0  0  0  0  0  0  0
    3.6115   -0.2636    1.2484 H   0  0  0  0  0  0  0  0  0  0  0  0
    4.8923   -0.2473   -1.5140 H   0  0  0  0  0  0  0  0  0  0  0  0
    4.9180   -1.6207   -0.3859 H   0  0  0  0  0  0  0  0  0  0  0  0
    7.5097   -0.9815   -0.8920 H   0  0  0  0  0  0  0  0  0  0  0  0
    9.2663   -0.1857    0.2153 H   0  0  0  0  0  0  0  0  0  0  0  0
  1  2  2  0
  2  3  1  0
  3  4  2  0
  4  5  1  0
  5  6  2  0
  1  6  1  0
  3  7  1  0
  7  8  1  0
  8  9  2  0
  8 10  1  0
 10 11  1  0
 11 12  1  0
 12 13  1  0
 13 14  1  0
 14 15  1  0
 15 16  1  0
 16 17  2  0
 16 18  1  0
 18 19  1  0
  1 20  1  0
  2 21  1  0
  4 22  1  0
  6 23  1  0
  7 24  1  0
 10 25  1  0
 10 26  1  0
 11 27  1  0
 11 28  1  0
 12 29  1  0
 12 30  1  0
 13 31  1  0
 13 32  1  0
 14 33  1  0
 14 34  1  0
 15 35  1  0
 15 36  1  0
 18 37  1  0
 19 38  1  0
M  END

