347828573
     RDKit          3D

 57 60  0  0  1  0  0  0  0  0999 V2000
   -3.7866    1.8298    0.0981 C   0  0  0  0  0  0  0  0  0  0  0  0
   -4.6856    0.6581    0.2902 C   0  0  2  0  0  0  0  0  0  0  0  0
   -4.0912   -0.6251   -0.1515 C   0  0  0  0  0  0  0  0  0  0  0  0
   -2.6160   -0.6662   -0.2426 C   0  0  2  0  0  0  0  0  0  0  0  0
   -1.8724    0.2849    0.6114 C   0  0  2  0  0  0  0  0  0  0  0  0
   -2.4308    1.6560    0.7068 C   0  0  0  0  0  0  0  0  0  0  0  0
   -2.1871   -0.5536   -1.7115 C   0  0  0  0  0  0  0  0  0  0  0  0
   -0.7803   -1.0379   -1.8603 C   0  0  0  0  0  0  0  0  0  0  0  0
    0.0287   -0.8622   -0.5659 C   0  0  2  0  0  0  0  0  0  0  0  0
   -0.4591    0.4276    0.0303 C   0  0  2  0  0  0  0  0  0  0  0  0
    1.4421   -0.7168   -0.9604 C   0  0  1  0  0  0  0  0  0  0  0  0
    2.3376   -0.0745    0.1088 C   0  0  2  0  0  0  0  0  0  0  0  0
    1.8046    1.2583    0.4775 C   0  0  0  0  0  0  0  0  0  0  0  0
    0.4155    0.9972    1.0802 C   0  0  0  0  0  0  0  0  0  0  0  0
    2.1939   -1.9895   -1.1840 C   0  0  0  0  0  0  0  0  0  0  0  0
    3.6392   -1.5342   -1.1644 C   0  0  0  0  0  0  0  0  0  0  0  0
    3.6281   -0.0946   -0.6356 C   0  0  2  0  0  0  0  0  0  0  0  0
    4.8272    0.2305    0.1240 C   0  0  0  0  0  0  0  0  0  0  0  0
    2.3291   -1.0010    1.3022 C   0  0  0  0  0  0  0  0  0  0  0  0
   -1.7817   -0.3222    2.0164 C   0  0  0  0  0  0  0  0  0  0  0  0
   -5.8769    0.9311   -0.4214 O   0  0  0  0  0  0  0  0  0  0  0  0
    4.9404    1.5688    0.7600 C   0  0  0  0  0  0  0  0  0  0  0  0
    5.7483   -0.5672    0.2554 O   0  0  0  0  0  0  0  0  0  0  0  0
   -4.2820    2.7162    0.5922 H   0  0  0  0  0  0  0  0  0  0  0  0
   -3.6809    2.0789   -0.9632 H   0  0  0  0  0  0  0  0  0  0  0  0
   -5.0201    0.5821    1.3646 H   0  0  0  0  0  0  0  0  0  0  0  0
   -4.4854   -1.4389    0.5171 H   0  0  0  0  0  0  0  0  0  0  0  0
   -4.5283   -0.8748   -1.1621 H   0  0  0  0  0  0  0  0  0  0  0  0
   -2.2866   -1.7078    0.0521 H   0  0  0  0  0  0  0  0  0  0  0  0
   -1.7704    2.4487    0.2563 H   0  0  0  0  0  0  0  0  0  0  0  0
   -2.5221    1.9701    1.7878 H   0  0  0  0  0  0  0  0  0  0  0  0
   -2.8595   -1.2793   -2.2522 H   0  0  0  0  0  0  0  0  0  0  0  0
   -2.3708    0.4373   -2.1244 H   0  0  0  0  0  0  0  0  0  0  0  0
   -0.2858   -0.4031   -2.6250 H   0  0  0  0  0  0  0  0  0  0  0  0
   -0.7098   -2.0841   -2.2206 H   0  0  0  0  0  0  0  0  0  0  0  0
   -0.1724   -1.7353    0.0566 H   0  0  0  0  0  0  0  0  0  0  0  0
   -0.5479    1.1641   -0.7951 H   0  0  0  0  0  0  0  0  0  0  0  0
    1.5640   -0.0815   -1.8613 H   0  0  0  0  0  0  0  0  0  0  0  0
    2.3970    1.6499    1.3466 H   0  0  0  0  0  0  0  0  0  0  0  0
    1.7635    1.9412   -0.3687 H   0  0  0  0  0  0  0  0  0  0  0  0
    0.5943    0.3107    1.9301 H   0  0  0  0  0  0  0  0  0  0  0  0
    0.0295    1.9704    1.3891 H   0  0  0  0  0  0  0  0  0  0  0  0
    2.0512   -2.6388   -0.2909 H   0  0  0  0  0  0  0  0  0  0  0  0
    1.9325   -2.4969   -2.1319 H   0  0  0  0  0  0  0  0  0  0  0  0
    4.2580   -2.1804   -0.4887 H   0  0  0  0  0  0  0  0  0  0  0  0
    4.0824   -1.5422   -2.1744 H   0  0  0  0  0  0  0  0  0  0  0  0
    3.4867    0.5570   -1.5412 H   0  0  0  0  0  0  0  0  0  0  0  0
    3.1878   -1.7063    1.2410 H   0  0  0  0  0  0  0  0  0  0  0  0
    1.4162   -1.5955    1.3816 H   0  0  0  0  0  0  0  0  0  0  0  0
    2.5105   -0.3966    2.2243 H   0  0  0  0  0  0  0  0  0  0  0  0
   -1.1121   -1.1810    2.0481 H   0  0  0  0  0  0  0  0  0  0  0  0
   -1.5671    0.4513    2.7699 H   0  0  0  0  0  0  0  0  0  0  0  0
   -2.8188   -0.6954    2.2378 H   0  0  0  0  0  0  0  0  0  0  0  0
   -6.1542    0.1903   -0.9809 H   0  0  0  0  0  0  0  0  0  0  0  0
    4.3809    2.3586    0.2221 H   0  0  0  0  0  0  0  0  0  0  0  0
    4.7293    1.5516    1.8500 H   0  0  0  0  0  0  0  0  0  0  0  0
    6.0235    1.8620    0.6143 H   0  0  0  0  0  0  0  0  0  0  0  0
  1  2  1  0
  2  3  1  0
  3  4  1  0
  4  5  1  0
  5  6  1  0
  1  6  1  0
  4  7  1  0
  7  8  1  0
  8  9  1  0
  9 10  1  0
  5 10  1  0
  9 11  1  0
 11 12  1  0
 12 13  1  0
 13 14  1  0
 10 14  1  0
 11 15  1  0
 15 16  1  0
 16 17  1  0
 12 17  1  0
 17 18  1  0
 12 19  1  1
  5 20  1  1
  2 21  1  0
 18 22  1  0
 18 23  2  0
  1 24  1  0
  1 25  1  0
  2 26  1  1
  3 27  1  0
  3 28  1  0
  4 29  1  1
  6 30  1  0
  6 31  1  0
  7 32  1  0
  7 33  1  0
  8 34  1  0
  8 35  1  0
  9 36  1  1
 10 37  1  6
 11 38  1  6
 13 39  1  0
 13 40  1  0
 14 41  1  0
 14 42  1  0
 15 43  1  0
 15 44  1  0
 16 45  1  0
 16 46  1  0
 17 47  1  6
 19 48  1  0
 19 49  1  0
 19 50  1  0
 20 51  1  0
 20 52  1  0
 20 53  1  0
 21 54  1  0
 22 55  1  0
 22 56  1  0
 22 57  1  0
M  END

