347828581
     RDKit          3D

 66 71  0  0  1  0  0  0  0  0999 V2000
    1.0667   -0.5472   -1.1117 C   0  0  0  0  0  0  0  0  0  0  0  0
    1.4177    0.5616   -0.2249 C   0  0  0  0  0  0  0  0  0  0  0  0
    2.7285    0.9027    0.0943 C   0  0  0  0  0  0  0  0  0  0  0  0
    2.6529    1.9688    0.9418 C   0  0  0  0  0  0  0  0  0  0  0  0
    1.3591    2.3081    1.1656 N   0  0  0  0  0  0  0  0  0  0  0  0
    0.5960    1.4414    0.4464 C   0  0  0  0  0  0  0  0  0  0  0  0
   -0.7948    1.5542    0.4882 C   0  0  0  0  0  0  0  0  0  0  0  0
   -1.2911    2.5376    1.2580 N   0  0  0  0  0  0  0  0  0  0  0  0
   -0.5285    3.3731    1.9527 C   0  0  0  0  0  0  0  0  0  0  0  0
    0.7979    3.2502    1.8998 N   0  0  0  0  0  0  0  0  0  0  0  0
   -1.6312    0.7316   -0.2527 N   0  0  0  0  0  0  0  0  0  0  0  0
   -3.0427    0.8126   -0.1812 C   0  0  0  0  0  0  0  0  0  0  0  0
   -3.8399    0.3897   -1.2389 C   0  0  0  0  0  0  0  0  0  0  0  0
   -5.2113    0.4186   -1.2079 C   0  0  0  0  0  0  0  0  0  0  0  0
   -5.8489    0.8921   -0.0674 C   0  0  0  0  0  0  0  0  0  0  0  0
   -5.0891    1.3179    0.9970 C   0  0  0  0  0  0  0  0  0  0  0  0
   -3.6996    1.2697    0.9201 C   0  0  0  0  0  0  0  0  0  0  0  0
   -5.9845    1.7220    1.9520 C   0  0  0  0  0  0  0  0  0  0  0  0
   -7.2130    1.5368    1.4589 N   0  0  0  0  0  0  0  0  0  0  0  0
   -7.1550    1.0266    0.2176 N   0  0  0  0  0  0  0  0  0  0  0  0
   -8.2862    0.6873   -0.6215 C   0  0  0  0  0  0  0  0  0  0  0  0
   -8.7827   -0.6895   -0.4196 C   0  0  0  0  0  0  0  0  0  0  0  0
   -8.3154   -1.6981   -1.2208 C   0  0  0  0  0  0  0  0  0  0  0  0
   -8.7200   -3.0074   -1.1010 C   0  0  0  0  0  0  0  0  0  0  0  0
   -9.6390   -3.3431   -0.1353 C   0  0  0  0  0  0  0  0  0  0  0  0
  -10.1257   -2.3544    0.6828 C   0  0  0  0  0  0  0  0  0  0  0  0
   -9.7020   -1.0361    0.5435 C   0  0  0  0  0  0  0  0  0  0  0  0
  -11.0291   -2.6739    1.6347 F   0  0  0  0  0  0  0  0  0  0  0  0
    3.9223    0.2828   -0.3605 N   0  0  0  0  0  0  0  0  0  0  0  0
    5.2274    0.6802    0.0099 C   0  0  0  0  0  0  0  0  0  0  0  0
    5.3975    1.6349    0.7869 O   0  0  0  0  0  0  0  0  0  0  0  0
    6.3639    0.0270   -0.4740 O   0  0  0  0  0  0  0  0  0  0  0  0
    7.6309    0.4905   -0.0518 C   0  0  0  0  0  0  0  0  0  0  0  0
    8.6657   -0.3941   -0.7262 C   0  0  2  0  0  0  0  0  0  0  0  0
    8.4196   -1.8338   -0.3150 C   0  0  0  0  0  0  0  0  0  0  0  0
    9.6509   -2.4879   -0.3218 O   0  0  0  0  0  0  0  0  0  0  0  0
   10.2843   -2.1296    0.8840 C   0  0  0  0  0  0  0  0  0  0  0  0
   10.3792   -0.6225    0.8882 C   0  0  0  0  0  0  0  0  0  0  0  0
   10.0105   -0.0413   -0.3904 N   0  0  0  0  0  0  0  0  0  0  0  0
    0.6428   -0.2488   -2.0990 H   0  0  0  0  0  0  0  0  0  0  0  0
    0.4876   -1.3702   -0.6406 H   0  0  0  0  0  0  0  0  0  0  0  0
    2.0246   -1.0738   -1.4148 H   0  0  0  0  0  0  0  0  0  0  0  0
    3.4590    2.5373    1.4242 H   0  0  0  0  0  0  0  0  0  0  0  0
   -0.9709    4.1459    2.5559 H   0  0  0  0  0  0  0  0  0  0  0  0
   -1.2669    0.0186   -0.9022 H   0  0  0  0  0  0  0  0  0  0  0  0
   -3.3150    0.0242   -2.1181 H   0  0  0  0  0  0  0  0  0  0  0  0
   -5.8255    0.0884   -2.0439 H   0  0  0  0  0  0  0  0  0  0  0  0
   -3.1949    1.6021    1.8011 H   0  0  0  0  0  0  0  0  0  0  0  0
   -5.6835    2.1156    2.9216 H   0  0  0  0  0  0  0  0  0  0  0  0
   -9.1261    1.3997   -0.3900 H   0  0  0  0  0  0  0  0  0  0  0  0
   -8.0256    0.8677   -1.6840 H   0  0  0  0  0  0  0  0  0  0  0  0
   -7.5964   -1.4836   -1.9934 H   0  0  0  0  0  0  0  0  0  0  0  0
   -8.3445   -3.7896   -1.7372 H   0  0  0  0  0  0  0  0  0  0  0  0
   -9.9828   -4.3809   -0.0139 H   0  0  0  0  0  0  0  0  0  0  0  0
  -10.0822   -0.2562    1.1845 H   0  0  0  0  0  0  0  0  0  0  0  0
    3.8345   -0.5427   -1.0314 H   0  0  0  0  0  0  0  0  0  0  0  0
    7.7546    0.4627    1.0413 H   0  0  0  0  0  0  0  0  0  0  0  0
    7.8152    1.5375   -0.3731 H   0  0  0  0  0  0  0  0  0  0  0  0
    8.4645   -0.3528   -1.8244 H   0  0  0  0  0  0  0  0  0  0  0  0
    7.6750   -2.3053   -0.9802 H   0  0  0  0  0  0  0  0  0  0  0  0
    8.0414   -1.8913    0.7260 H   0  0  0  0  0  0  0  0  0  0  0  0
   11.2452   -2.6353    1.0086 H   0  0  0  0  0  0  0  0  0  0  0  0
    9.5705   -2.4120    1.6861 H   0  0  0  0  0  0  0  0  0  0  0  0
    9.7043   -0.1613    1.6446 H   0  0  0  0  0  0  0  0  0  0  0  0
   11.4156   -0.3600    1.1658 H   0  0  0  0  0  0  0  0  0  0  0  0
   10.6385   -0.4948   -1.1059 H   0  0  0  0  0  0  0  0  0  0  0  0
  1  2  1  0
  2  3  1  0
  3  4  2  0
  4  5  1  0
  5  6  1  0
  2  6  2  0
  6  7  1  0
  7  8  2  0
  8  9  1  0
  9 10  2  0
  5 10  1  0
  7 11  1  0
 11 12  1  0
 12 13  2  0
 13 14  1  0
 14 15  2  0
 15 16  1  0
 16 17  2  0
 12 17  1  0
 16 18  1  0
 18 19  2  0
 19 20  1  0
 15 20  1  0
 20 21  1  0
 21 22  1  0
 22 23  2  0
 23 24  1  0
 24 25  2  0
 25 26  1  0
 26 27  2  0
 22 27  1  0
 26 28  1  0
  3 29  1  0
 29 30  1  0
 30 31  2  0
 30 32  1  0
 32 33  1  0
 34 33  1  0
 34 35  1  0
 35 36  1  0
 36 37  1  0
 37 38  1  0
 38 39  1  0
 34 39  1  0
  1 40  1  0
  1 41  1  0
  1 42  1  0
  4 43  1  0
  9 44  1  0
 11 45  1  0
 13 46  1  0
 14 47  1  0
 17 48  1  0
 18 49  1  0
 21 50  1  0
 21 51  1  0
 23 52  1  0
 24 53  1  0
 25 54  1  0
 27 55  1  0
 29 56  1  0
 33 57  1  0
 33 58  1  0
 34 59  1  6
 35 60  1  0
 35 61  1  0
 37 62  1  0
 37 63  1  0
 38 64  1  0
 38 65  1  0
 39 66  1  0
M  END

