347829128
     RDKit          3D

 39 41  0  0  1  0  0  0  0  0999 V2000
   -0.4922   -2.1014   -0.3661 C   0  0  0  0  0  0  0  0  0  0  0  0
   -0.8619   -0.8806   -1.0461 N   0  0  0  0  0  0  0  0  0  0  0  0
   -0.1446   -0.3930    1.0233 C   0  0  1  0  0  0  0  0  0  0  0  0
   -0.0820   -1.8243    0.8198 N   0  0  0  0  0  0  0  0  0  0  0  0
   -0.1064    2.0682   -0.4456 C   0  0  0  0  0  0  0  0  0  0  0  0
    1.1116    1.5266    0.0857 N   0  0  0  0  0  0  0  0  0  0  0  0
    1.1726    0.1418    0.4995 C   0  0  1  0  0  0  0  0  0  0  0  0
   -1.3133    1.3564   -0.2440 N   0  0  0  0  0  0  0  0  0  0  0  0
   -1.2624   -0.0234    0.0763 C   0  0  1  0  0  0  0  0  0  0  0  0
   -2.5984   -0.4770    0.5352 C   0  0  0  0  0  0  0  0  0  0  0  0
   -3.4170    0.7649    0.6426 C   0  0  0  0  0  0  0  0  0  0  0  0
   -2.7077    1.7317   -0.2849 C   0  0  0  0  0  0  0  0  0  0  0  0
   -2.5580   -1.2075    1.7211 O   0  0  0  0  0  0  0  0  0  0  0  0
   -3.1946   -1.2580   -0.4733 O   0  0  0  0  0  0  0  0  0  0  0  0
   -0.5498   -3.4299   -0.8802 N   0  0  0  0  0  0  0  0  0  0  0  0
   -0.0557    3.1818   -1.0851 N   0  0  0  0  0  0  0  0  0  0  0  0
    2.1862    2.3086    0.1952 O   0  0  0  0  0  0  0  0  0  0  0  0
    2.2143   -0.0376    1.5633 C   0  0  0  0  0  0  0  0  0  0  0  0
    3.4817    0.3341    1.1181 O   0  0  0  0  0  0  0  0  0  0  0  0
    4.1026   -0.2968    0.0721 C   0  0  0  0  0  0  0  0  0  0  0  0
    5.4068    0.1195   -0.3596 N   0  0  0  0  0  0  0  0  0  0  0  0
    3.5942   -1.2494   -0.5607 O   0  0  0  0  0  0  0  0  0  0  0  0
   -0.8293   -0.7228   -2.0513 H   0  0  0  0  0  0  0  0  0  0  0  0
   -0.3448   -0.1115    2.0619 H   0  0  0  0  0  0  0  0  0  0  0  0
    1.4654   -0.4440   -0.3889 H   0  0  0  0  0  0  0  0  0  0  0  0
   -4.4559    0.5880    0.2975 H   0  0  0  0  0  0  0  0  0  0  0  0
   -3.3906    1.1041    1.6972 H   0  0  0  0  0  0  0  0  0  0  0  0
   -2.8966    2.7535    0.0543 H   0  0  0  0  0  0  0  0  0  0  0  0
   -3.1592    1.6219   -1.2887 H   0  0  0  0  0  0  0  0  0  0  0  0
   -2.5255   -2.1757    1.4490 H   0  0  0  0  0  0  0  0  0  0  0  0
   -4.1889   -1.1268   -0.4326 H   0  0  0  0  0  0  0  0  0  0  0  0
   -1.1325   -4.1198   -0.3603 H   0  0  0  0  0  0  0  0  0  0  0  0
   -0.0554   -3.7596   -1.7317 H   0  0  0  0  0  0  0  0  0  0  0  0
   -0.9498    3.5599   -1.4637 H   0  0  0  0  0  0  0  0  0  0  0  0
    2.6700    2.4315   -0.6707 H   0  0  0  0  0  0  0  0  0  0  0  0
    1.8869    0.6048    2.4281 H   0  0  0  0  0  0  0  0  0  0  0  0
    2.1924   -1.1126    1.9077 H   0  0  0  0  0  0  0  0  0  0  0  0
    5.7020    0.1269   -1.3532 H   0  0  0  0  0  0  0  0  0  0  0  0
    6.0860    0.4274    0.3546 H   0  0  0  0  0  0  0  0  0  0  0  0
 10 11  1  0
 11 12  1  0
  8 12  1  0
  9 10  1  0
  3  9  1  0
 10 13  1  0
  5  8  1  0
 10 14  1  0
  5  6  1  0
  1 15  1  0
  6  7  1  0
  3  7  1  0
  5 16  2  3
  8  9  1  0
  6 17  1  0
  3  4  1  0
  7 18  1  0
  1  4  2  0
 18 19  1  0
  9  2  1  6
 19 20  1  0
 20 21  1  0
  1  2  1  0
 20 22  2  0
  2 23  1  0
  3 24  1  1
  7 25  1  6
 11 26  1  0
 11 27  1  0
 12 28  1  0
 12 29  1  0
 13 30  1  0
 14 31  1  0
 15 32  1  0
 15 33  1  0
 16 34  1  0
 17 35  1  0
 18 36  1  0
 18 37  1  0
 21 38  1  0
 21 39  1  0
M  END

