347828100
     RDKit          3D

 74 77  0  0  0  0  0  0  0  0999 V2000
   -5.2645    0.0412    1.1024 C   0  0  0  0  0  0  0  0  0  0  0  0
   -4.0231   -0.2862    0.6889 O   0  0  0  0  0  0  0  0  0  0  0  0
   -5.8511    0.9767   -0.0140 C   0  0  0  0  0  0  0  0  0  0  0  0
   -6.2834   -0.9872    1.2891 C   0  0  0  0  0  0  0  0  0  0  0  0
   -3.1118    0.7485    1.0112 C   0  0  0  0  0  0  0  0  0  0  0  0
   -6.5955    2.0221    0.3995 C   0  0  0  0  0  0  0  0  0  0  0  0
   -5.6367    0.6766   -1.2978 C   0  0  0  0  0  0  0  0  0  0  0  0
   -6.4738   -1.9949    0.3703 C   0  0  0  0  0  0  0  0  0  0  0  0
   -7.1876   -0.9281    2.3216 C   0  0  0  0  0  0  0  0  0  0  0  0
   -2.0846    0.5012    2.0263 C   0  0  0  0  0  0  0  0  0  0  0  0
   -2.6185    1.2751   -0.3372 C   0  0  0  0  0  0  0  0  0  0  0  0
   -7.1751    2.8354   -0.5701 C   0  0  0  0  0  0  0  0  0  0  0  0
   -6.2116    1.4865   -2.3055 C   0  0  0  0  0  0  0  0  0  0  0  0
   -7.5152   -2.9200    0.4527 C   0  0  0  0  0  0  0  0  0  0  0  0
   -8.2443   -1.8362    2.4431 C   0  0  0  0  0  0  0  0  0  0  0  0
   -0.6582    0.2497    1.5287 C   0  0  0  0  0  0  0  0  0  0  0  0
   -1.1345    1.3908   -0.3671 C   0  0  0  0  0  0  0  0  0  0  0  0
   -6.9708    2.5527   -1.8831 C   0  0  0  0  0  0  0  0  0  0  0  0
   -8.4123   -2.8468    1.4955 C   0  0  0  0  0  0  0  0  0  0  0  0
   -0.6555    0.0236    0.1442 N   0  0  0  0  0  0  0  0  0  0  0  0
    0.5342   -0.2462   -0.5890 C   0  0  0  0  0  0  0  0  0  0  0  0
    1.2615   -1.4432   -0.1146 C   0  0  0  0  0  0  0  0  0  0  0  0
    2.2645   -1.9967   -1.0603 C   0  0  0  0  0  0  0  0  0  0  0  0
    3.3027   -1.2425   -1.7080 C   0  0  0  0  0  0  0  0  0  0  0  0
    3.1048   -0.9775   -2.9961 O   0  0  0  0  0  0  0  0  0  0  0  0
    4.5289   -0.7404   -1.1918 C   0  0  0  0  0  0  0  0  0  0  0  0
    4.8718   -0.5459    0.1266 C   0  0  0  0  0  0  0  0  0  0  0  0
    5.5526   -0.5074   -2.1266 C   0  0  0  0  0  0  0  0  0  0  0  0
    6.1610   -0.1410    0.4694 C   0  0  0  0  0  0  0  0  0  0  0  0
    6.8085   -0.1153   -1.7868 C   0  0  0  0  0  0  0  0  0  0  0  0
    7.1306    0.0741   -0.4639 C   0  0  0  0  0  0  0  0  0  0  0  0
    8.5244    0.4595   -0.1522 C   0  0  0  0  0  0  0  0  0  0  0  0
    8.7328    0.9229    1.2502 C   0  0  0  0  0  0  0  0  0  0  0  0
    9.3221   -0.8644   -0.3228 C   0  0  0  0  0  0  0  0  0  0  0  0
    9.0236    1.4770   -1.1215 C   0  0  0  0  0  0  0  0  0  0  0  0
   -5.2155    0.7843    1.9263 H   0  0  0  0  0  0  0  0  0  0  0  0
   -3.7379    1.6211    1.4418 H   0  0  0  0  0  0  0  0  0  0  0  0
   -6.7551    2.2483    1.4497 H   0  0  0  0  0  0  0  0  0  0  0  0
   -5.0507   -0.1378   -1.6686 H   0  0  0  0  0  0  0  0  0  0  0  0
   -5.7663   -2.0689   -0.4565 H   0  0  0  0  0  0  0  0  0  0  0  0
   -7.0842   -0.1531    3.0977 H   0  0  0  0  0  0  0  0  0  0  0  0
   -2.0245    1.3889    2.7523 H   0  0  0  0  0  0  0  0  0  0  0  0
   -2.3605   -0.3351    2.6874 H   0  0  0  0  0  0  0  0  0  0  0  0
   -2.8472    0.4776   -1.1161 H   0  0  0  0  0  0  0  0  0  0  0  0
   -3.1233    2.2197   -0.6366 H   0  0  0  0  0  0  0  0  0  0  0  0
   -7.7640    3.6616   -0.2348 H   0  0  0  0  0  0  0  0  0  0  0  0
   -6.0484    1.2605   -3.3398 H   0  0  0  0  0  0  0  0  0  0  0  0
   -7.6234   -3.6953   -0.3066 H   0  0  0  0  0  0  0  0  0  0  0  0
   -8.9533   -1.8000    3.2314 H   0  0  0  0  0  0  0  0  0  0  0  0
   -0.2055   -0.5906    2.1145 H   0  0  0  0  0  0  0  0  0  0  0  0
   -0.0708    1.1405    1.7860 H   0  0  0  0  0  0  0  0  0  0  0  0
   -0.7187    1.5678   -1.3566 H   0  0  0  0  0  0  0  0  0  0  0  0
   -0.8073    2.1233    0.3851 H   0  0  0  0  0  0  0  0  0  0  0  0
   -7.4177    3.1747   -2.6620 H   0  0  0  0  0  0  0  0  0  0  0  0
   -9.2259   -3.5542    1.5692 H   0  0  0  0  0  0  0  0  0  0  0  0
    0.2099   -0.4568   -1.6503 H   0  0  0  0  0  0  0  0  0  0  0  0
    1.2041    0.6399   -0.6786 H   0  0  0  0  0  0  0  0  0  0  0  0
    0.5277   -2.2553    0.1596 H   0  0  0  0  0  0  0  0  0  0  0  0
    1.7447   -1.2146    0.8859 H   0  0  0  0  0  0  0  0  0  0  0  0
    2.7331   -2.9462   -0.5649 H   0  0  0  0  0  0  0  0  0  0  0  0
    1.6437   -2.5437   -1.8771 H   0  0  0  0  0  0  0  0  0  0  0  0
    4.0991   -0.7005    0.8633 H   0  0  0  0  0  0  0  0  0  0  0  0
    5.3350   -0.6745   -3.1860 H   0  0  0  0  0  0  0  0  0  0  0  0
    6.3856    0.0136    1.5073 H   0  0  0  0  0  0  0  0  0  0  0  0
    7.5420    0.0357   -2.5741 H   0  0  0  0  0  0  0  0  0  0  0  0
    8.5634    0.0695    1.9492 H   0  0  0  0  0  0  0  0  0  0  0  0
    8.1196    1.7950    1.4945 H   0  0  0  0  0  0  0  0  0  0  0  0
    9.7991    1.2730    1.3118 H   0  0  0  0  0  0  0  0  0  0  0  0
   10.3924   -0.6642   -0.3299 H   0  0  0  0  0  0  0  0  0  0  0  0
    9.0490   -1.4925    0.5390 H   0  0  0  0  0  0  0  0  0  0  0  0
    8.9358   -1.3746   -1.2380 H   0  0  0  0  0  0  0  0  0  0  0  0
    9.9071    2.0036   -0.6784 H   0  0  0  0  0  0  0  0  0  0  0  0
    9.3401    1.0216   -2.0681 H   0  0  0  0  0  0  0  0  0  0  0  0
    8.2527    2.2525   -1.2403 H   0  0  0  0  0  0  0  0  0  0  0  0
  1  2  1  0
  1  3  1  0
  1  4  1  0
  2  5  1  0
  3  6  2  0
  3  7  1  0
  4  8  2  0
  4  9  1  0
  5 10  1  0
  5 11  1  0
  6 12  1  0
  7 13  2  0
  8 14  1  0
  9 15  2  0
 10 16  1  0
 11 17  1  0
 12 18  2  0
 13 18  1  0
 14 19  2  0
 15 19  1  0
 16 20  1  0
 17 20  1  0
 20 21  1  0
 21 22  1  0
 22 23  1  0
 23 24  1  0
 24 25  2  0
 24 26  1  0
 26 27  2  0
 26 28  1  0
 27 29  1  0
 28 30  2  0
 29 31  2  0
 30 31  1  0
 31 32  1  0
 32 33  1  0
 32 34  1  0
 32 35  1  0
  1 36  1  0
  5 37  1  0
  6 38  1  0
  7 39  1  0
  8 40  1  0
  9 41  1  0
 10 42  1  0
 10 43  1  0
 11 44  1  0
 11 45  1  0
 12 46  1  0
 13 47  1  0
 14 48  1  0
 15 49  1  0
 16 50  1  0
 16 51  1  0
 17 52  1  0
 17 53  1  0
 18 54  1  0
 19 55  1  0
 21 56  1  0
 21 57  1  0
 22 58  1  0
 22 59  1  0
 23 60  1  0
 23 61  1  0
 27 62  1  0
 28 63  1  0
 29 64  1  0
 30 65  1  0
 33 66  1  0
 33 67  1  0
 33 68  1  0
 34 69  1  0
 34 70  1  0
 34 71  1  0
 35 72  1  0
 35 73  1  0
 35 74  1  0
M  END

