347829113
     RDKit          3D

 67 71  0  0  1  0  0  0  0  0999 V2000
    2.8984    1.1561   -2.6570 C   0  0  0  0  0  0  0  0  0  0  0  0
    2.4713    1.1741   -1.1662 C   0  0  2  0  0  0  0  0  0  0  0  0
    3.3638    0.3048   -0.4018 C   0  0  0  0  0  0  0  0  0  0  0  0
    3.0486   -0.3100    0.7919 C   0  0  0  0  0  0  0  0  0  0  0  0
    3.9005   -1.1387    1.4959 C   0  0  0  0  0  0  0  0  0  0  0  0
    5.1426   -1.3413    0.9366 C   0  0  0  0  0  0  0  0  0  0  0  0
    5.4965   -0.7408   -0.2618 C   0  0  0  0  0  0  0  0  0  0  0  0
    4.6367    0.0804   -0.9504 C   0  0  0  0  0  0  0  0  0  0  0  0
    6.8603   -0.9855   -0.8566 C   0  0  0  0  0  0  0  0  0  0  0  0
    6.7887   -0.7921   -2.2278 F   0  0  0  0  0  0  0  0  0  0  0  0
    7.1871   -2.3088   -0.6391 F   0  0  0  0  0  0  0  0  0  0  0  0
    7.7808   -0.1179   -0.3529 F   0  0  0  0  0  0  0  0  0  0  0  0
    3.5238   -1.7871    2.7825 C   0  0  0  0  0  0  0  0  0  0  0  0
    4.6410   -2.3899    3.3650 F   0  0  0  0  0  0  0  0  0  0  0  0
    3.0619   -0.8532    3.7000 F   0  0  0  0  0  0  0  0  0  0  0  0
    2.5936   -2.7949    2.5957 F   0  0  0  0  0  0  0  0  0  0  0  0
    1.1820    0.6503   -1.1933 O   0  0  0  0  0  0  0  0  0  0  0  0
    0.1817    1.6133   -1.0631 C   0  0  1  0  0  0  0  0  0  0  0  0
   -0.7468    1.5581   -2.2647 C   0  0  0  0  0  0  0  0  0  0  0  0
   -0.8932    0.0577   -2.5710 C   0  0  0  0  0  0  0  0  0  0  0  0
   -1.1846   -0.6241   -1.2834 C   0  0  2  0  0  0  0  0  0  0  0  0
   -2.3344   -1.5961   -1.3264 C   0  0  0  0  0  0  0  0  0  0  0  0
   -2.8327   -1.6096    0.0280 N   0  0  0  0  0  0  0  0  0  0  0  0
   -2.0674   -0.6728    0.8513 C   0  0  0  0  0  0  0  0  0  0  0  0
   -1.7017    0.3492   -0.2175 C   0  0  1  0  0  0  0  0  0  0  0  0
   -0.6756    1.3205    0.1638 C   0  0  2  0  0  0  0  0  0  0  0  0
   -1.1234    2.5702    0.7569 C   0  0  0  0  0  0  0  0  0  0  0  0
   -2.3248    3.1548    0.4923 C   0  0  0  0  0  0  0  0  0  0  0  0
   -2.7330    4.3486    1.0585 C   0  0  0  0  0  0  0  0  0  0  0  0
   -1.8982    5.0005    1.9385 C   0  0  0  0  0  0  0  0  0  0  0  0
   -0.6809    4.4343    2.2257 C   0  0  0  0  0  0  0  0  0  0  0  0
   -0.2963    3.2311    1.6405 C   0  0  0  0  0  0  0  0  0  0  0  0
   -2.3223    6.1750    2.4853 F   0  0  0  0  0  0  0  0  0  0  0  0
   -3.9300   -2.4290    0.4781 C   0  0  0  0  0  0  0  0  0  0  0  0
   -4.8022   -2.1183    1.4271 C   0  0  0  0  0  0  0  0  0  0  0  0
   -5.7629   -3.1756    1.6125 C   0  0  0  0  0  0  0  0  0  0  0  0
   -6.8516   -3.0970    2.2061 O   0  0  0  0  0  0  0  0  0  0  0  0
   -5.1933   -4.3661    0.9573 C   0  0  0  0  0  0  0  0  0  0  0  0
   -4.2649   -3.7579   -0.0573 C   0  0  0  0  0  0  0  0  0  0  0  0
    3.1844    0.1281   -2.8765 H   0  0  0  0  0  0  0  0  0  0  0  0
    2.0195    1.5337   -3.2135 H   0  0  0  0  0  0  0  0  0  0  0  0
    3.7306    1.8325   -2.8489 H   0  0  0  0  0  0  0  0  0  0  0  0
    2.4338    2.2274   -0.9203 H   0  0  0  0  0  0  0  0  0  0  0  0
    2.0812   -0.1544    1.2284 H   0  0  0  0  0  0  0  0  0  0  0  0
    5.8798   -1.9866    1.4311 H   0  0  0  0  0  0  0  0  0  0  0  0
    4.9379    0.5327   -1.8693 H   0  0  0  0  0  0  0  0  0  0  0  0
    0.6481    2.5897   -0.9818 H   0  0  0  0  0  0  0  0  0  0  0  0
   -0.3692    2.0979   -3.1308 H   0  0  0  0  0  0  0  0  0  0  0  0
   -1.7159    1.9711   -1.9641 H   0  0  0  0  0  0  0  0  0  0  0  0
    0.1402   -0.2509   -2.8855 H   0  0  0  0  0  0  0  0  0  0  0  0
   -1.5792   -0.1451   -3.3963 H   0  0  0  0  0  0  0  0  0  0  0  0
   -0.2821   -1.1237   -0.8209 H   0  0  0  0  0  0  0  0  0  0  0  0
   -2.0405   -2.5890   -1.7197 H   0  0  0  0  0  0  0  0  0  0  0  0
   -3.1233   -1.1215   -1.9623 H   0  0  0  0  0  0  0  0  0  0  0  0
   -2.6551   -0.2292    1.6685 H   0  0  0  0  0  0  0  0  0  0  0  0
   -1.1414   -1.1638    1.1239 H   0  0  0  0  0  0  0  0  0  0  0  0
   -2.6407    0.7441   -0.6225 H   0  0  0  0  0  0  0  0  0  0  0  0
    0.0267    0.8464    0.9163 H   0  0  0  0  0  0  0  0  0  0  0  0
   -3.0108    2.6814   -0.1746 H   0  0  0  0  0  0  0  0  0  0  0  0
   -3.6973    4.7708    0.8108 H   0  0  0  0  0  0  0  0  0  0  0  0
   -0.0529    4.9728    2.9145 H   0  0  0  0  0  0  0  0  0  0  0  0
    0.6738    2.8586    1.9245 H   0  0  0  0  0  0  0  0  0  0  0  0
   -4.7496   -1.1629    1.9682 H   0  0  0  0  0  0  0  0  0  0  0  0
   -4.6387   -5.0071    1.6902 H   0  0  0  0  0  0  0  0  0  0  0  0
   -5.9672   -4.9811    0.4486 H   0  0  0  0  0  0  0  0  0  0  0  0
   -3.3665   -4.3854   -0.2322 H   0  0  0  0  0  0  0  0  0  0  0  0
   -4.8641   -3.6593   -1.0053 H   0  0  0  0  0  0  0  0  0  0  0  0
  2  1  1  0
  2  3  1  0
  3  4  2  0
  4  5  1  0
  5  6  2  0
  6  7  1  0
  7  8  2  0
  3  8  1  0
  7  9  1  0
  9 10  1  0
  9 11  1  0
  9 12  1  0
  5 13  1  0
 13 14  1  0
 13 15  1  0
 13 16  1  0
  2 17  1  0
 18 17  1  0
 18 19  1  0
 19 20  1  0
 20 21  1  0
 21 22  1  0
 22 23  1  0
 23 24  1  0
 25 24  1  0
 21 25  1  0
 25 26  1  0
 18 26  1  0
 26 27  1  0
 27 28  2  0
 28 29  1  0
 29 30  2  0
 30 31  1  0
 31 32  2  0
 27 32  1  0
 30 33  1  0
 23 34  1  0
 34 35  2  0
 35 36  1  0
 36 37  2  0
 36 38  1  0
 38 39  1  0
 34 39  1  0
  1 40  1  0
  1 41  1  0
  1 42  1  0
  2 43  1  1
  4 44  1  0
  6 45  1  0
  8 46  1  0
 18 47  1  1
 19 48  1  0
 19 49  1  0
 20 50  1  0
 20 51  1  0
 21 52  1  1
 22 53  1  0
 22 54  1  0
 24 55  1  0
 24 56  1  0
 25 57  1  6
 26 58  1  1
 28 59  1  0
 29 60  1  0
 31 61  1  0
 32 62  1  0
 35 63  1  0
 38 64  1  0
 38 65  1  0
 39 66  1  0
 39 67  1  0
M  END

