347828775
     RDKit          3D

 61 65  0  0  0  0  0  0  0  0999 V2000
   -3.4714   -0.7427   -2.8945 C   0  0  0  0  0  0  0  0  0  0  0  0
    6.2951    1.9383    1.2443 C   0  0  0  0  0  0  0  0  0  0  0  0
    5.1850   -0.3896   -2.2006 C   0  0  0  0  0  0  0  0  0  0  0  0
    3.9705   -0.4792   -2.8205 C   0  0  0  0  0  0  0  0  0  0  0  0
    5.2745   -0.3396   -0.8119 C   0  0  0  0  0  0  0  0  0  0  0  0
    2.8081   -0.5223   -2.0893 C   0  0  0  0  0  0  0  0  0  0  0  0
   -5.7922   -0.6709    2.6338 C   0  0  0  0  0  0  0  0  0  0  0  0
   -5.4789   -0.9183    1.3171 C   0  0  0  0  0  0  0  0  0  0  0  0
    5.8913   -1.1989    3.0066 C   0  0  0  0  0  0  0  0  0  0  0  0
   -1.7920   -1.6396   -0.4524 C   0  0  0  0  0  0  0  0  0  0  0  0
   -1.5153    0.7665   -1.0632 C   0  0  0  0  0  0  0  0  0  0  0  0
    7.0494   -0.6982    3.5246 C   0  0  0  0  0  0  0  0  0  0  0  0
   -0.5081   -1.4785    0.2843 C   0  0  0  0  0  0  0  0  0  0  0  0
   -0.1798    0.1505   -1.5194 C   0  0  0  0  0  0  0  0  0  0  0  0
   -5.7802    1.6584    2.0814 C   0  0  0  0  0  0  0  0  0  0  0  0
   -5.9407    0.6493    3.0001 C   0  0  0  0  0  0  0  0  0  0  0  0
   -2.4722   -0.2838   -0.6133 C   0  0  0  0  0  0  0  0  0  0  0  0
    4.1216   -0.3805   -0.0852 C   0  0  0  0  0  0  0  0  0  0  0  0
    2.8656   -0.4733   -0.7171 C   0  0  0  0  0  0  0  0  0  0  0  0
   -5.3107    0.0885    0.3662 C   0  0  0  0  0  0  0  0  0  0  0  0
   -5.4636    1.4008    0.7518 C   0  0  0  0  0  0  0  0  0  0  0  0
    5.4427   -0.2794    2.0520 C   0  0  0  0  0  0  0  0  0  0  0  0
    4.2199   -0.3643    1.2808 C   0  0  0  0  0  0  0  0  0  0  0  0
    1.7231   -0.5498    0.0267 C   0  0  0  0  0  0  0  0  0  0  0  0
   -4.9684   -0.2439   -1.0194 C   0  0  0  0  0  0  0  0  0  0  0  0
   -5.3134    2.5365   -0.1947 C   0  0  0  0  0  0  0  0  0  0  0  0
   -6.2519    0.9085    4.3029 F   0  0  0  0  0  0  0  0  0  0  0  0
   -6.2218    2.4406   -1.2335 F   0  0  0  0  0  0  0  0  0  0  0  0
   -5.6522    3.7228    0.4688 F   0  0  0  0  0  0  0  0  0  0  0  0
   -4.0158    2.6571   -0.5946 F   0  0  0  0  0  0  0  0  0  0  0  0
    7.2967    0.4543    2.9281 N   0  0  0  0  0  0  0  0  0  0  0  0
    3.0638   -0.4455    1.9649 N   0  0  0  0  0  0  0  0  0  0  0  0
    1.9012   -0.5319    1.3922 N   0  0  0  0  0  0  0  0  0  0  0  0
   -3.6439   -0.4170   -1.4906 N   0  0  0  0  0  0  0  0  0  0  0  0
    6.3481    0.7094    2.0548 N   0  0  0  0  0  0  0  0  0  0  0  0
    0.4090   -0.5912   -0.4544 N   0  0  0  0  0  0  0  0  0  0  0  0
   -5.9330   -0.3779   -1.8117 O   0  0  0  0  0  0  0  0  0  0  0  0
   -2.5914   -1.3926   -3.0639 H   0  0  0  0  0  0  0  0  0  0  0  0
   -4.3721   -1.3019   -3.2632 H   0  0  0  0  0  0  0  0  0  0  0  0
   -3.3677    0.1518   -3.5309 H   0  0  0  0  0  0  0  0  0  0  0  0
    7.0185    1.8447    0.4281 H   0  0  0  0  0  0  0  0  0  0  0  0
    6.4887    2.7812    1.9351 H   0  0  0  0  0  0  0  0  0  0  0  0
    5.2739    2.0574    0.8248 H   0  0  0  0  0  0  0  0  0  0  0  0
    6.1287   -0.3537   -2.7653 H   0  0  0  0  0  0  0  0  0  0  0  0
    3.9168   -0.5174   -3.9077 H   0  0  0  0  0  0  0  0  0  0  0  0
    6.2628   -0.2952   -0.3357 H   0  0  0  0  0  0  0  0  0  0  0  0
    1.8601   -0.6111   -2.5734 H   0  0  0  0  0  0  0  0  0  0  0  0
   -5.9198   -1.4669    3.3630 H   0  0  0  0  0  0  0  0  0  0  0  0
   -5.3605   -1.9702    1.0246 H   0  0  0  0  0  0  0  0  0  0  0  0
    5.4162   -2.1171    3.2769 H   0  0  0  0  0  0  0  0  0  0  0  0
   -2.4304   -2.3408    0.1231 H   0  0  0  0  0  0  0  0  0  0  0  0
   -1.5866   -2.1110   -1.4220 H   0  0  0  0  0  0  0  0  0  0  0  0
   -1.8975    1.3533   -1.8991 H   0  0  0  0  0  0  0  0  0  0  0  0
   -1.2440    1.4336   -0.2201 H   0  0  0  0  0  0  0  0  0  0  0  0
    7.6888   -1.1400    4.2961 H   0  0  0  0  0  0  0  0  0  0  0  0
   -0.0048   -2.4267    0.4797 H   0  0  0  0  0  0  0  0  0  0  0  0
   -0.7249   -0.9255    1.2402 H   0  0  0  0  0  0  0  0  0  0  0  0
    0.4423    1.0328   -1.7666 H   0  0  0  0  0  0  0  0  0  0  0  0
   -0.4216   -0.4297   -2.4343 H   0  0  0  0  0  0  0  0  0  0  0  0
   -5.9025    2.7066    2.3905 H   0  0  0  0  0  0  0  0  0  0  0  0
   -2.8333   -0.0274    0.3992 H   0  0  0  0  0  0  0  0  0  0  0  0
  3  4  2  0
  3  5  1  0
  4  6  1  0
  7  8  2  0
  9 12  1  0
 10 13  1  0
 11 14  1  0
  7 16  1  0
 15 16  2  0
 10 17  1  0
 11 17  1  0
  5 18  2  0
  6 19  2  0
 18 19  1  0
  8 20  1  0
 15 21  1  0
 20 21  2  0
  9 22  2  0
 18 23  1  0
 22 23  1  0
 19 24  1  0
 20 25  1  0
 21 26  1  0
 16 27  1  0
 26 28  1  0
 26 29  1  0
 26 30  1  0
 12 31  2  0
 23 32  2  0
 24 33  2  0
 32 33  1  0
  1 34  1  0
 17 34  1  0
 25 34  1  0
  2 35  1  0
 22 35  1  0
 31 35  1  0
 13 36  1  0
 14 36  1  0
 24 36  1  0
 25 37  2  0
  1 38  1  0
  1 39  1  0
  1 40  1  0
  2 41  1  0
  2 42  1  0
  2 43  1  0
  3 44  1  0
  4 45  1  0
  5 46  1  0
  6 47  1  0
  7 48  1  0
  8 49  1  0
  9 50  1  0
 10 51  1  0
 10 52  1  0
 11 53  1  0
 11 54  1  0
 12 55  1  0
 13 56  1  0
 13 57  1  0
 14 58  1  0
 14 59  1  0
 15 60  1  0
 17 61  1  0
M  END

