347829178
     RDKit          3D

 57 59  0  0  0  0  0  0  0  0999 V2000
   -9.8473   -2.0021    0.9033 C   0  0  0  0  0  0  0  0  0  0  0  0
   -9.2103   -0.8562    0.7397 C   0  0  0  0  0  0  0  0  0  0  0  0
   -7.8784   -0.6354    1.3498 C   0  0  0  0  0  0  0  0  0  0  0  0
   -6.8592   -0.3352    0.2975 C   0  0  0  0  0  0  0  0  0  0  0  0
   -7.1650   -0.2256   -1.0302 C   0  0  0  0  0  0  0  0  0  0  0  0
   -6.1618    0.0593   -1.9382 C   0  0  0  0  0  0  0  0  0  0  0  0
   -4.8624    0.2343   -1.5323 C   0  0  0  0  0  0  0  0  0  0  0  0
   -4.5095    0.1290   -0.1760 C   0  0  0  0  0  0  0  0  0  0  0  0
   -5.5299   -0.1545    0.6980 C   0  0  0  0  0  0  0  0  0  0  0  0
   -5.2534   -0.2724    2.0519 O   0  0  0  0  0  0  0  0  0  0  0  0
   -3.1179    0.3189    0.1988 C   0  0  0  0  0  0  0  0  0  0  0  0
   -2.2569    0.5842   -0.7043 N   0  0  0  0  0  0  0  0  0  0  0  0
   -0.9107    0.7813   -0.4470 N   0  0  0  0  0  0  0  0  0  0  0  0
   -0.4373    1.4728    0.6828 C   0  0  0  0  0  0  0  0  0  0  0  0
   -1.2868    1.9469    1.5166 O   0  0  0  0  0  0  0  0  0  0  0  0
    0.9828    1.7115    1.0082 C   0  0  0  0  0  0  0  0  0  0  0  0
    1.9071    1.2001    0.1277 N   0  0  0  0  0  0  0  0  0  0  0  0
    2.1494   -0.1687   -0.0427 C   0  0  0  0  0  0  0  0  0  0  0  0
    3.6658   -0.3549    0.0361 C   0  0  0  0  0  0  0  0  0  0  0  0
    4.3715    0.5256   -0.8157 N   0  0  0  0  0  0  0  0  0  0  0  0
    3.6387    1.4675   -1.5770 C   0  0  0  0  0  0  0  0  0  0  0  0
    2.3647    1.9788   -0.9509 C   0  0  0  0  0  0  0  0  0  0  0  0
    5.6567    0.9594   -0.3774 C   0  0  0  0  0  0  0  0  0  0  0  0
    6.6375   -0.1300   -0.1627 C   0  0  0  0  0  0  0  0  0  0  0  0
    6.7690   -0.6618    1.0989 C   0  0  0  0  0  0  0  0  0  0  0  0
    7.6619   -1.6822    1.3825 C   0  0  0  0  0  0  0  0  0  0  0  0
    8.4531   -2.1925    0.3749 C   0  0  0  0  0  0  0  0  0  0  0  0
    8.3426   -1.6792   -0.8975 C   0  0  0  0  0  0  0  0  0  0  0  0
    7.4410   -0.6592   -1.1515 C   0  0  0  0  0  0  0  0  0  0  0  0
  -10.8156   -2.1889    0.4712 H   0  0  0  0  0  0  0  0  0  0  0  0
   -9.3860   -2.7774    1.4894 H   0  0  0  0  0  0  0  0  0  0  0  0
   -9.6807   -0.0750    0.1476 H   0  0  0  0  0  0  0  0  0  0  0  0
   -7.8417    0.1520    2.1079 H   0  0  0  0  0  0  0  0  0  0  0  0
   -7.5382   -1.5893    1.8370 H   0  0  0  0  0  0  0  0  0  0  0  0
   -8.1802   -0.3607   -1.3656 H   0  0  0  0  0  0  0  0  0  0  0  0
   -6.3515    0.1589   -3.0097 H   0  0  0  0  0  0  0  0  0  0  0  0
   -4.0801    0.4563   -2.2403 H   0  0  0  0  0  0  0  0  0  0  0  0
   -4.3344   -0.1550    2.3914 H   0  0  0  0  0  0  0  0  0  0  0  0
   -2.8217    0.2350    1.2152 H   0  0  0  0  0  0  0  0  0  0  0  0
   -0.2202    0.4034   -1.1268 H   0  0  0  0  0  0  0  0  0  0  0  0
    1.2117    1.2880    2.0487 H   0  0  0  0  0  0  0  0  0  0  0  0
    1.1057    2.8201    1.1745 H   0  0  0  0  0  0  0  0  0  0  0  0
    1.7062   -0.8288    0.7293 H   0  0  0  0  0  0  0  0  0  0  0  0
    1.8936   -0.5746   -1.0635 H   0  0  0  0  0  0  0  0  0  0  0  0
    3.8566   -1.4124   -0.2719 H   0  0  0  0  0  0  0  0  0  0  0  0
    3.9136   -0.2000    1.1123 H   0  0  0  0  0  0  0  0  0  0  0  0
    3.4329    1.0679   -2.5893 H   0  0  0  0  0  0  0  0  0  0  0  0
    4.3038    2.3699   -1.7207 H   0  0  0  0  0  0  0  0  0  0  0  0
    2.4447    3.0527   -0.6655 H   0  0  0  0  0  0  0  0  0  0  0  0
    1.5605    1.9759   -1.7464 H   0  0  0  0  0  0  0  0  0  0  0  0
    5.5814    1.6258    0.5199 H   0  0  0  0  0  0  0  0  0  0  0  0
    6.0873    1.6089   -1.1880 H   0  0  0  0  0  0  0  0  0  0  0  0
    6.1639   -0.2846    1.9139 H   0  0  0  0  0  0  0  0  0  0  0  0
    7.7676   -2.1021    2.3769 H   0  0  0  0  0  0  0  0  0  0  0  0
    9.1397   -2.9857    0.6170 H   0  0  0  0  0  0  0  0  0  0  0  0
    8.9672   -2.0891   -1.6699 H   0  0  0  0  0  0  0  0  0  0  0  0
    7.3589   -0.2578   -2.1578 H   0  0  0  0  0  0  0  0  0  0  0  0
  1  2  2  3
  2  3  1  0
  3  4  1  0
  4  5  2  0
  5  6  1  0
  6  7  2  0
  7  8  1  0
  8  9  2  0
  4  9  1  0
  9 10  1  0
  8 11  1  0
 11 12  2  0
 12 13  1  0
 13 14  1  0
 14 15  2  0
 14 16  1  0
 16 17  1  0
 17 18  1  0
 18 19  1  0
 19 20  1  0
 20 21  1  0
 21 22  1  0
 17 22  1  0
 20 23  1  0
 23 24  1  0
 24 25  2  0
 25 26  1  0
 26 27  2  0
 27 28  1  0
 28 29  2  0
 24 29  1  0
  1 30  1  0
  1 31  1  0
  2 32  1  0
  3 33  1  0
  3 34  1  0
  5 35  1  0
  6 36  1  0
  7 37  1  0
 10 38  1  0
 11 39  1  0
 13 40  1  0
 16 41  1  0
 16 42  1  0
 18 43  1  0
 18 44  1  0
 19 45  1  0
 19 46  1  0
 21 47  1  0
 21 48  1  0
 22 49  1  0
 22 50  1  0
 23 51  1  0
 23 52  1  0
 25 53  1  0
 26 54  1  0
 27 55  1  0
 28 56  1  0
 29 57  1  0
M  END

