347828077
     RDKit          3D

 64 68  0  0  1  0  0  0  0  0999 V2000
   -5.3631    1.9709   -0.1342 C   0  0  0  0  0  0  0  0  0  0  0  0
   -4.1281    2.1805    0.6548 C   0  0  0  0  0  0  0  0  0  0  0  0
   -3.5248    3.5064    0.1482 C   0  0  0  0  0  0  0  0  0  0  0  0
   -4.4041    2.4377    2.1317 C   0  0  0  0  0  0  0  0  0  0  0  0
   -5.1939    3.5799    2.2521 O   0  0  0  0  0  0  0  0  0  0  0  0
   -3.0846    1.1261    0.4701 C   0  0  0  0  0  0  0  0  0  0  0  0
   -1.7446    1.3880    0.1875 C   0  0  0  0  0  0  0  0  0  0  0  0
   -1.0361    0.2206    0.0902 C   0  0  0  0  0  0  0  0  0  0  0  0
    0.2908   -0.0948   -0.1720 C   0  0  0  0  0  0  0  0  0  0  0  0
    0.7228   -1.3855   -0.2141 C   0  0  0  0  0  0  0  0  0  0  0  0
   -0.1973   -2.4297    0.0147 C   0  0  0  0  0  0  0  0  0  0  0  0
   -1.4944   -2.0685    0.2691 C   0  0  0  0  0  0  0  0  0  0  0  0
   -1.9592   -0.7727    0.3170 C   0  0  0  0  0  0  0  0  0  0  0  0
   -3.1837   -0.2069    0.5425 N   0  0  0  0  0  0  0  0  0  0  0  0
   -4.3539   -1.0080    0.8312 C   0  0  0  0  0  0  0  0  0  0  0  0
   -5.0824   -1.4869   -0.4026 C   0  0  2  0  0  0  0  0  0  0  0  0
   -6.2970   -2.3286    0.0084 C   0  0  0  0  0  0  0  0  0  0  0  0
   -7.1508   -1.6206    0.8175 O   0  0  0  0  0  0  0  0  0  0  0  0
   -4.2501   -2.2753   -1.2170 O   0  0  0  0  0  0  0  0  0  0  0  0
    0.1978   -3.7358   -0.0173 F   0  0  0  0  0  0  0  0  0  0  0  0
    2.0375   -1.8231   -0.5036 N   0  0  0  0  0  0  0  0  0  0  0  0
    3.1329   -0.9491   -0.6345 C   0  0  0  0  0  0  0  0  0  0  0  0
    3.0549    0.3021   -0.4947 O   0  0  0  0  0  0  0  0  0  0  0  0
    4.4974   -1.4953   -0.9597 C   0  0  0  0  0  0  0  0  0  0  0  0
    4.7287   -2.9409   -1.1133 C   0  0  0  0  0  0  0  0  0  0  0  0
    4.6976   -2.0327   -2.3414 C   0  0  0  0  0  0  0  0  0  0  0  0
    5.6142   -0.6570   -0.4589 C   0  0  0  0  0  0  0  0  0  0  0  0
    6.6394   -1.2183    0.3057 C   0  0  0  0  0  0  0  0  0  0  0  0
    7.6770   -0.4238    0.7387 C   0  0  0  0  0  0  0  0  0  0  0  0
    7.7424    0.9080    0.4463 C   0  0  0  0  0  0  0  0  0  0  0  0
    6.7340    1.4506   -0.3030 C   0  0  0  0  0  0  0  0  0  0  0  0
    5.6745    0.6686   -0.7533 C   0  0  0  0  0  0  0  0  0  0  0  0
    7.0221    2.7781   -0.4580 O   0  0  0  0  0  0  0  0  0  0  0  0
    8.1691    3.1139    0.3166 C   0  0  0  0  0  0  0  0  0  0  0  0
    8.6750    1.8793    0.7707 O   0  0  0  0  0  0  0  0  0  0  0  0
    9.0633    3.7352   -0.5542 F   0  0  0  0  0  0  0  0  0  0  0  0
    7.8592    3.9278    1.3787 F   0  0  0  0  0  0  0  0  0  0  0  0
   -5.1118    1.7330   -1.1851 H   0  0  0  0  0  0  0  0  0  0  0  0
   -6.0944    1.2609    0.2990 H   0  0  0  0  0  0  0  0  0  0  0  0
   -5.9140    2.9544   -0.2005 H   0  0  0  0  0  0  0  0  0  0  0  0
   -2.7857    3.8935    0.8745 H   0  0  0  0  0  0  0  0  0  0  0  0
   -2.9565    3.2840   -0.7785 H   0  0  0  0  0  0  0  0  0  0  0  0
   -4.3415    4.2195   -0.0827 H   0  0  0  0  0  0  0  0  0  0  0  0
   -3.4217    2.5990    2.6521 H   0  0  0  0  0  0  0  0  0  0  0  0
   -4.8673    1.5704    2.6379 H   0  0  0  0  0  0  0  0  0  0  0  0
   -6.1415    3.3326    2.4159 H   0  0  0  0  0  0  0  0  0  0  0  0
   -1.3012    2.3886    0.0562 H   0  0  0  0  0  0  0  0  0  0  0  0
    0.9521    0.7149   -0.3428 H   0  0  0  0  0  0  0  0  0  0  0  0
   -2.1925   -2.8715    0.4496 H   0  0  0  0  0  0  0  0  0  0  0  0
   -4.0302   -1.9581    1.3583 H   0  0  0  0  0  0  0  0  0  0  0  0
   -5.0428   -0.5409    1.5630 H   0  0  0  0  0  0  0  0  0  0  0  0
   -5.4696   -0.6851   -1.0507 H   0  0  0  0  0  0  0  0  0  0  0  0
   -6.8459   -2.6660   -0.8758 H   0  0  0  0  0  0  0  0  0  0  0  0
   -5.9171   -3.2222    0.5501 H   0  0  0  0  0  0  0  0  0  0  0  0
   -6.9004   -1.7518    1.7834 H   0  0  0  0  0  0  0  0  0  0  0  0
   -4.8034   -2.6054   -1.9696 H   0  0  0  0  0  0  0  0  0  0  0  0
    2.2367   -2.8639   -0.6371 H   0  0  0  0  0  0  0  0  0  0  0  0
    5.7540   -3.3639   -0.9231 H   0  0  0  0  0  0  0  0  0  0  0  0
    3.9456   -3.6994   -1.0255 H   0  0  0  0  0  0  0  0  0  0  0  0
    3.8552   -2.2193   -3.0092 H   0  0  0  0  0  0  0  0  0  0  0  0
    5.6512   -1.7901   -2.8454 H   0  0  0  0  0  0  0  0  0  0  0  0
    6.5718   -2.2555    0.5270 H   0  0  0  0  0  0  0  0  0  0  0  0
    8.4744   -0.8539    1.3318 H   0  0  0  0  0  0  0  0  0  0  0  0
    4.9140    1.1757   -1.3609 H   0  0  0  0  0  0  0  0  0  0  0  0
  1  2  1  0
  2  3  1  0
  2  4  1  0
  4  5  1  0
  2  6  1  0
  6  7  2  0
  7  8  1  0
  8  9  2  0
  9 10  1  0
 10 11  2  0
 11 12  1  0
 12 13  2  0
  8 13  1  0
 13 14  1  0
  6 14  1  0
 14 15  1  0
 15 16  1  0
 16 17  1  0
 17 18  1  0
 16 19  1  0
 11 20  1  0
 10 21  1  0
 21 22  1  0
 22 23  2  0
 22 24  1  0
 24 25  1  0
 25 26  1  0
 24 26  1  0
 24 27  1  0
 27 28  2  0
 28 29  1  0
 29 30  2  0
 30 31  1  0
 31 32  2  0
 27 32  1  0
 31 33  1  0
 33 34  1  0
 34 35  1  0
 30 35  1  0
 34 36  1  0
 34 37  1  0
  1 38  1  0
  1 39  1  0
  1 40  1  0
  3 41  1  0
  3 42  1  0
  3 43  1  0
  4 44  1  0
  4 45  1  0
  5 46  1  0
  7 47  1  0
  9 48  1  0
 12 49  1  0
 15 50  1  0
 15 51  1  0
 16 52  1  6
 17 53  1  0
 17 54  1  0
 18 55  1  0
 19 56  1  0
 21 57  1  0
 25 58  1  0
 25 59  1  0
 26 60  1  0
 26 61  1  0
 28 62  1  0
 29 63  1  0
 32 64  1  0
M  END

