347829133
     RDKit          3D

 80 83  0  0  1  0  0  0  0  0999 V2000
   -0.2158    1.7149   -0.6800 O   0  0  0  0  0  0  0  0  0  0  0  0
   -1.3410   -0.7104    2.1591 O   0  0  0  0  0  0  0  0  0  0  0  0
    1.5984    2.1961   -2.0130 O   0  0  0  0  0  0  0  0  0  0  0  0
    1.6973   -0.0152    0.4264 O   0  0  0  0  0  0  0  0  0  0  0  0
   -3.4539   -0.0721    1.7735 O   0  0  0  0  0  0  0  0  0  0  0  0
   -2.8154   -0.0354   -1.0507 O   0  0  0  0  0  0  0  0  0  0  0  0
   -1.8414    2.9425   -2.6145 O   0  0  0  0  0  0  0  0  0  0  0  0
   -0.9550    2.1613   -4.7938 O   0  0  0  0  0  0  0  0  0  0  0  0
    2.1228    3.5663   -4.9054 O   0  0  0  0  0  0  0  0  0  0  0  0
    1.0409   -0.4016    3.5344 O   0  0  0  0  0  0  0  0  0  0  0  0
    2.5976    1.5423    1.7456 O   0  0  0  0  0  0  0  0  0  0  0  0
   -7.9042   -3.5227    5.6183 O   0  0  0  0  0  0  0  0  0  0  0  0
   -9.5253   -4.4566    3.6982 O   0  0  0  0  0  0  0  0  0  0  0  0
    7.8496   -1.4078   -2.8209 O   0  0  0  0  0  0  0  0  0  0  0  0
   10.1621   -0.2484   -1.7554 O   0  0  0  0  0  0  0  0  0  0  0  0
   -0.5527    0.3864   -0.3581 C   0  0  1  0  0  0  0  0  0  0  0  0
    0.3575    0.0487    0.7908 C   0  0  1  0  0  0  0  0  0  0  0  0
   -1.9767    0.2940    0.0307 C   0  0  2  0  0  0  0  0  0  0  0  0
   -0.1249   -1.1466    1.5537 C   0  0  1  0  0  0  0  0  0  0  0  0
    0.2248    1.9150   -1.9649 C   0  0  2  0  0  0  0  0  0  0  0  0
   -0.4463    3.0457   -2.6948 C   0  0  1  0  0  0  0  0  0  0  0  0
   -2.3105   -0.6131    1.1422 C   0  0  1  0  0  0  0  0  0  0  0  0
   -0.0026    2.9780   -4.1297 C   0  0  1  0  0  0  0  0  0  0  0  0
    1.3725    2.5112   -4.3858 C   0  0  2  0  0  0  0  0  0  0  0  0
    2.0976    1.8595   -3.2560 C   0  0  2  0  0  0  0  0  0  0  0  0
    0.7999   -1.4740    2.6750 C   0  0  0  0  0  0  0  0  0  0  0  0
    2.1130    0.3597   -3.4006 C   0  0  0  0  0  0  0  0  0  0  0  0
   -4.4198   -1.0743    1.9445 C   0  0  0  0  0  0  0  0  0  0  0  0
    2.7689    0.6810    0.8674 C   0  0  0  0  0  0  0  0  0  0  0  0
   -5.6739   -0.4888    2.5692 C   0  0  0  0  0  0  0  0  0  0  0  0
    4.0900    0.3877    0.2942 C   0  0  0  0  0  0  0  0  0  0  0  0
   -6.7147   -1.5026    2.8264 C   0  0  0  0  0  0  0  0  0  0  0  0
    5.2183    0.9172    0.6038 C   0  0  0  0  0  0  0  0  0  0  0  0
   -6.8481   -2.0266    4.0667 C   0  0  0  0  0  0  0  0  0  0  0  0
   -7.5630   -1.9759    1.7889 C   0  0  0  0  0  0  0  0  0  0  0  0
   -7.7774   -2.9991    4.3467 C   0  0  0  0  0  0  0  0  0  0  0  0
   -8.4961   -2.9593    2.0876 C   0  0  0  0  0  0  0  0  0  0  0  0
    6.5004    0.5779   -0.0142 C   0  0  0  0  0  0  0  0  0  0  0  0
   -8.5911   -3.4607    3.3699 C   0  0  0  0  0  0  0  0  0  0  0  0
    6.5627   -0.2698   -1.1175 C   0  0  0  0  0  0  0  0  0  0  0  0
    7.6499    1.0912    0.4427 C   0  0  0  0  0  0  0  0  0  0  0  0
    7.7433   -0.5808   -1.7338 C   0  0  0  0  0  0  0  0  0  0  0  0
    8.8825    0.8310   -0.1194 C   0  0  0  0  0  0  0  0  0  0  0  0
    8.9226   -0.0157   -1.2218 C   0  0  0  0  0  0  0  0  0  0  0  0
   -3.7600   -0.0357   -0.7654 H   0  0  0  0  0  0  0  0  0  0  0  0
   -2.0761    2.9412   -1.6504 H   0  0  0  0  0  0  0  0  0  0  0  0
   -1.8579    2.3398   -4.4506 H   0  0  0  0  0  0  0  0  0  0  0  0
    3.0756    3.3193   -4.9586 H   0  0  0  0  0  0  0  0  0  0  0  0
    1.7726   -0.7115    4.1366 H   0  0  0  0  0  0  0  0  0  0  0  0
   -7.3140   -3.1819    6.3598 H   0  0  0  0  0  0  0  0  0  0  0  0
   -9.5908   -4.8281    4.6490 H   0  0  0  0  0  0  0  0  0  0  0  0
    8.7454   -1.6293   -3.2581 H   0  0  0  0  0  0  0  0  0  0  0  0
   10.9965    0.1844   -1.3624 H   0  0  0  0  0  0  0  0  0  0  0  0
   -0.3097   -0.2279   -1.2650 H   0  0  0  0  0  0  0  0  0  0  0  0
    0.2886    0.9078    1.5283 H   0  0  0  0  0  0  0  0  0  0  0  0
   -2.3086    1.3409    0.3021 H   0  0  0  0  0  0  0  0  0  0  0  0
   -0.3030   -2.0151    0.9268 H   0  0  0  0  0  0  0  0  0  0  0  0
    0.1339    0.9471   -2.5018 H   0  0  0  0  0  0  0  0  0  0  0  0
   -0.0979    4.0154   -2.2672 H   0  0  0  0  0  0  0  0  0  0  0  0
   -2.6156   -1.6423    0.8465 H   0  0  0  0  0  0  0  0  0  0  0  0
   -0.1817    3.9947   -4.6076 H   0  0  0  0  0  0  0  0  0  0  0  0
    1.3307    1.7411   -5.2130 H   0  0  0  0  0  0  0  0  0  0  0  0
    3.1528    2.1978   -3.2601 H   0  0  0  0  0  0  0  0  0  0  0  0
    1.7822   -1.8492    2.2551 H   0  0  0  0  0  0  0  0  0  0  0  0
    0.4453   -2.3067    3.3139 H   0  0  0  0  0  0  0  0  0  0  0  0
    2.3978   -0.1216   -2.4504 H   0  0  0  0  0  0  0  0  0  0  0  0
    1.1748   -0.0563   -3.8415 H   0  0  0  0  0  0  0  0  0  0  0  0
    2.9604    0.1363   -4.1069 H   0  0  0  0  0  0  0  0  0  0  0  0
   -4.0820   -1.9215    2.5578 H   0  0  0  0  0  0  0  0  0  0  0  0
   -4.6888   -1.4273    0.9290 H   0  0  0  0  0  0  0  0  0  0  0  0
   -6.0881    0.3762    2.0397 H   0  0  0  0  0  0  0  0  0  0  0  0
   -5.3863   -0.0765    3.5944 H   0  0  0  0  0  0  0  0  0  0  0  0
    4.1218   -0.3881   -0.4965 H   0  0  0  0  0  0  0  0  0  0  0  0
    5.2322    1.6892    1.4028 H   0  0  0  0  0  0  0  0  0  0  0  0
   -6.1983   -1.6604    4.8572 H   0  0  0  0  0  0  0  0  0  0  0  0
   -7.4800   -1.5870    0.8174 H   0  0  0  0  0  0  0  0  0  0  0  0
   -9.1502   -3.3372    1.2927 H   0  0  0  0  0  0  0  0  0  0  0  0
    5.6755   -0.7151   -1.5391 H   0  0  0  0  0  0  0  0  0  0  0  0
    7.6131    1.7715    1.3292 H   0  0  0  0  0  0  0  0  0  0  0  0
    9.7670    1.2660    0.2888 H   0  0  0  0  0  0  0  0  0  0  0  0
 16  1  1  0
 20  1  1  0
  2 19  1  0
  2 22  1  0
  3 20  1  0
  3 25  1  0
 17  4  1  0
  4 29  1  0
 22  5  1  0
  5 28  1  0
 18  6  1  0
 21  7  1  0
 23  8  1  0
 24  9  1  0
 10 26  1  0
 11 29  2  0
 12 36  1  0
 13 39  1  0
 14 42  1  0
 15 44  1  0
 16 17  1  0
 16 18  1  0
 17 19  1  0
 18 22  1  0
 19 26  1  0
 20 21  1  0
 21 23  1  0
 23 24  1  0
 24 25  1  0
 25 27  1  0
 28 30  1  0
 29 31  1  0
 30 32  1  0
 31 33  2  0
 32 34  2  0
 32 35  1  0
 33 38  1  0
 34 36  1  0
 35 37  2  0
 36 39  2  0
 37 39  1  0
 38 40  2  0
 38 41  1  0
 40 42  1  0
 41 43  2  0
 42 44  2  0
 43 44  1  0
  6 45  1  0
  7 46  1  0
  8 47  1  0
  9 48  1  0
 10 49  1  0
 12 50  1  0
 13 51  1  0
 14 52  1  0
 15 53  1  0
 16 54  1  6
 17 55  1  1
 18 56  1  1
 19 57  1  6
 20 58  1  6
 21 59  1  1
 22 60  1  6
 23 61  1  6
 24 62  1  6
 25 63  1  1
 26 64  1  0
 26 65  1  0
 27 66  1  0
 27 67  1  0
 27 68  1  0
 28 69  1  0
 28 70  1  0
 30 71  1  0
 30 72  1  0
 31 73  1  0
 33 74  1  0
 34 75  1  0
 35 76  1  0
 37 77  1  0
 40 78  1  0
 41 79  1  0
 43 80  1  0
M  END

