347827726
     RDKit          3D

 67 68  0  0  1  0  0  0  0  0999 V2000
   -7.2277    2.7932   -0.6822 C   0  0  0  0  0  0  0  0  0  0  0  0
   -6.9833    1.4064   -0.6612 C   0  0  0  0  0  0  0  0  0  0  0  0
   -5.7357    0.8795   -0.8304 C   0  0  0  0  0  0  0  0  0  0  0  0
   -4.6824    1.7790   -1.0306 C   0  0  0  0  0  0  0  0  0  0  0  0
   -4.9041    3.1392   -1.0546 C   0  0  0  0  0  0  0  0  0  0  0  0
   -6.1682    3.6349   -0.8791 C   0  0  0  0  0  0  0  0  0  0  0  0
   -5.5494   -0.5813   -0.8078 C   0  0  0  0  0  0  0  0  0  0  0  0
   -5.2814   -1.1474   -2.1535 C   0  0  0  0  0  0  0  0  0  0  0  0
   -6.8961   -1.1906   -0.3467 C   0  0  0  0  0  0  0  0  0  0  0  0
   -4.5617   -1.0454    0.2404 C   0  0  0  0  0  0  0  0  0  0  0  0
   -3.4190    1.2498   -1.2522 N   0  0  0  0  0  0  0  0  0  0  0  0
   -2.2352    1.9822   -1.2054 C   0  0  0  0  0  0  0  0  0  0  0  0
   -0.9197    1.3777   -1.4797 C   0  0  0  0  0  0  0  0  0  0  0  0
    0.2341    2.1769   -1.2498 N   0  0  0  0  0  0  0  0  0  0  0  0
    1.5359    1.6495   -1.5400 C   0  0  2  0  0  0  0  0  0  0  0  0
    2.1088    0.7262   -0.5232 C   0  0  0  0  0  0  0  0  0  0  0  0
    3.4433    0.9104   -0.1238 N   0  0  0  0  0  0  0  0  0  0  0  0
    4.1889    0.0676    0.8113 C   0  0  2  0  0  0  0  0  0  0  0  0
    3.4884   -0.0956    2.1261 C   0  0  0  0  0  0  0  0  0  0  0  0
    3.8278   -0.9682    3.2130 C   0  0  0  0  0  0  0  0  0  0  0  0
    4.7691   -1.9621    3.1549 O   0  0  0  0  0  0  0  0  0  0  0  0
    4.8928   -3.0809    2.4093 C   0  0  0  0  0  0  0  0  0  0  0  0
    5.6583   -3.2212    1.2986 C   0  0  0  0  0  0  0  0  0  0  0  0
    5.7487   -4.3782    0.5571 C   0  0  0  0  0  0  0  0  0  0  0  0
    5.0390   -5.4848    0.9278 C   0  0  0  0  0  0  0  0  0  0  0  0
    4.2491   -5.3885    2.0472 C   0  0  0  0  0  0  0  0  0  0  0  0
    4.1553   -4.2303    2.7910 C   0  0  0  0  0  0  0  0  0  0  0  0
    6.5290   -4.4829   -0.5571 F   0  0  0  0  0  0  0  0  0  0  0  0
    6.4633   -2.2174    0.8401 F   0  0  0  0  0  0  0  0  0  0  0  0
    3.5109   -6.4955    2.4186 F   0  0  0  0  0  0  0  0  0  0  0  0
    3.3517   -4.2519    3.8746 F   0  0  0  0  0  0  0  0  0  0  0  0
    2.4915    0.6434    2.2481 O   0  0  0  0  0  0  0  0  0  0  0  0
    5.5188    0.7072    0.9718 C   0  0  0  0  0  0  0  0  0  0  0  0
    5.2431    2.1008    1.4856 C   0  0  0  0  0  0  0  0  0  0  0  0
    1.4056   -0.1834   -0.0582 O   0  0  0  0  0  0  0  0  0  0  0  0
    2.5248    2.6387   -2.0813 C   0  0  0  0  0  0  0  0  0  0  0  0
   -0.8703    0.2132   -1.8958 O   0  0  0  0  0  0  0  0  0  0  0  0
   -2.2179    3.1930   -0.9272 O   0  0  0  0  0  0  0  0  0  0  0  0
    5.3854    3.1673    0.6382 O   0  0  0  0  0  0  0  0  0  0  0  0
    4.8875    2.2737    2.6605 O   0  0  0  0  0  0  0  0  0  0  0  0
   -8.2115    3.1854   -0.5524 H   0  0  0  0  0  0  0  0  0  0  0  0
   -7.8877    0.8307   -0.5092 H   0  0  0  0  0  0  0  0  0  0  0  0
   -4.1297    3.8792   -1.2162 H   0  0  0  0  0  0  0  0  0  0  0  0
   -6.3441    4.7127   -0.9008 H   0  0  0  0  0  0  0  0  0  0  0  0
   -6.1626   -1.7547   -2.5145 H   0  0  0  0  0  0  0  0  0  0  0  0
   -5.1513   -0.3135   -2.8932 H   0  0  0  0  0  0  0  0  0  0  0  0
   -4.3815   -1.8006   -2.1441 H   0  0  0  0  0  0  0  0  0  0  0  0
   -7.6433   -1.1545   -1.1246 H   0  0  0  0  0  0  0  0  0  0  0  0
   -7.2225   -0.6290    0.5422 H   0  0  0  0  0  0  0  0  0  0  0  0
   -6.7061   -2.2276    0.0259 H   0  0  0  0  0  0  0  0  0  0  0  0
   -4.0977   -0.1805    0.7418 H   0  0  0  0  0  0  0  0  0  0  0  0
   -3.8295   -1.7683   -0.1851 H   0  0  0  0  0  0  0  0  0  0  0  0
   -5.1062   -1.5916    1.0300 H   0  0  0  0  0  0  0  0  0  0  0  0
   -3.3237    0.2157   -1.4765 H   0  0  0  0  0  0  0  0  0  0  0  0
    0.1447    3.1693   -0.8534 H   0  0  0  0  0  0  0  0  0  0  0  0
    1.3539    0.9255   -2.4331 H   0  0  0  0  0  0  0  0  0  0  0  0
    3.9494    1.7556   -0.5651 H   0  0  0  0  0  0  0  0  0  0  0  0
    4.1862   -0.9489    0.3842 H   0  0  0  0  0  0  0  0  0  0  0  0
    2.8265   -1.3864    3.6058 H   0  0  0  0  0  0  0  0  0  0  0  0
    4.1153   -0.3317    4.1293 H   0  0  0  0  0  0  0  0  0  0  0  0
    5.1098   -6.4140    0.3412 H   0  0  0  0  0  0  0  0  0  0  0  0
    6.0355    0.7401   -0.0038 H   0  0  0  0  0  0  0  0  0  0  0  0
    6.2203    0.2044    1.6802 H   0  0  0  0  0  0  0  0  0  0  0  0
    2.0519    3.1414   -2.9574 H   0  0  0  0  0  0  0  0  0  0  0  0
    3.3727    2.0531   -2.4998 H   0  0  0  0  0  0  0  0  0  0  0  0
    2.9280    3.3281   -1.3415 H   0  0  0  0  0  0  0  0  0  0  0  0
    4.9043    4.0557    0.7628 H   0  0  0  0  0  0  0  0  0  0  0  0
 19 20  1  0
  7 10  1  0
 20 21  1  0
  2  3  2  0
 21 22  1  0
  4 11  1  0
 22 23  2  0
  5  6  1  0
 23 24  1  0
 11 12  1  0
 24 25  2  0
  1  6  2  0
 25 26  1  0
 12 13  1  0
 26 27  2  0
 22 27  1  0
  1  2  1  0
 24 28  1  0
 13 14  1  0
 23 29  1  0
  3  7  1  0
 26 30  1  0
 14 15  1  0
 27 31  1  0
  3  4  1  0
 19 32  2  0
 15 16  1  0
 18 33  1  0
  7  8  1  0
 33 34  1  0
 16 17  1  0
 16 35  2  0
 15 36  1  0
 17 18  1  0
 13 37  2  0
  7  9  1  0
 12 38  2  0
 18 19  1  0
 34 39  1  0
  4  5  2  0
 34 40  2  0
  1 41  1  0
  2 42  1  0
  5 43  1  0
  6 44  1  0
  8 45  1  0
  8 46  1  0
  8 47  1  0
  9 48  1  0
  9 49  1  0
  9 50  1  0
 10 51  1  0
 10 52  1  0
 10 53  1  0
 11 54  1  0
 14 55  1  0
 15 56  1  6
 17 57  1  0
 18 58  1  6
 20 59  1  0
 20 60  1  0
 25 61  1  0
 33 62  1  0
 33 63  1  0
 36 64  1  0
 36 65  1  0
 36 66  1  0
 39 67  1  0
M  END

