347828556
     RDKit          3D

 39 41  0  0  0  0  0  0  0  0999 V2000
   -3.2130   -1.0589   -2.8022 C   0  0  0  0  0  0  0  0  0  0  0  0
   -4.2427   -1.2660   -1.8539 O   0  0  0  0  0  0  0  0  0  0  0  0
   -4.0678   -0.8514   -0.5399 C   0  0  0  0  0  0  0  0  0  0  0  0
   -5.0326   -1.0262    0.4275 C   0  0  0  0  0  0  0  0  0  0  0  0
   -4.8312   -0.6037    1.7280 C   0  0  0  0  0  0  0  0  0  0  0  0
   -3.6464    0.0161    2.1161 C   0  0  0  0  0  0  0  0  0  0  0  0
   -2.6881    0.1843    1.1337 C   0  0  0  0  0  0  0  0  0  0  0  0
   -2.8917   -0.2387   -0.1645 C   0  0  0  0  0  0  0  0  0  0  0  0
   -1.6315    0.8173    1.7880 C   0  0  0  0  0  0  0  0  0  0  0  0
   -1.9605    1.0138    3.1136 C   0  0  0  0  0  0  0  0  0  0  0  0
   -3.1984    0.5139    3.2859 N   0  0  0  0  0  0  0  0  0  0  0  0
   -0.3779    1.1993    1.1229 C   0  0  0  0  0  0  0  0  0  0  0  0
    0.5442    0.0232    0.8785 C   0  0  0  0  0  0  0  0  0  0  0  0
    1.7621    0.4247    0.2239 N   0  0  0  0  0  0  0  0  0  0  0  0
    2.7427   -0.5384   -0.0814 C   0  0  0  0  0  0  0  0  0  0  0  0
    2.6167   -1.7558    0.1900 O   0  0  0  0  0  0  0  0  0  0  0  0
    3.9834   -0.1117   -0.7525 C   0  0  0  0  0  0  0  0  0  0  0  0
    4.9867   -1.0061   -1.0695 C   0  0  0  0  0  0  0  0  0  0  0  0
    6.1350   -0.5911   -1.6944 C   0  0  0  0  0  0  0  0  0  0  0  0
    7.0624   -1.3758   -1.9952 O   0  0  0  0  0  0  0  0  0  0  0  0
    6.2726    0.7465   -2.0039 C   0  0  0  0  0  0  0  0  0  0  0  0
    5.2474    1.5943   -1.6679 C   0  0  0  0  0  0  0  0  0  0  0  0
    4.1614    1.1513   -1.0677 O   0  0  0  0  0  0  0  0  0  0  0  0
   -2.9157    0.0231   -2.7563 H   0  0  0  0  0  0  0  0  0  0  0  0
   -2.3162   -1.6783   -2.5658 H   0  0  0  0  0  0  0  0  0  0  0  0
   -3.5401   -1.3686   -3.8108 H   0  0  0  0  0  0  0  0  0  0  0  0
   -5.9677   -1.5075    0.1501 H   0  0  0  0  0  0  0  0  0  0  0  0
   -5.5755   -0.7332    2.4960 H   0  0  0  0  0  0  0  0  0  0  0  0
   -2.0939   -0.0708   -0.8741 H   0  0  0  0  0  0  0  0  0  0  0  0
   -1.3702    1.4754    3.8992 H   0  0  0  0  0  0  0  0  0  0  0  0
   -3.7278    0.5131    4.1870 H   0  0  0  0  0  0  0  0  0  0  0  0
   -0.5211    1.7753    0.2039 H   0  0  0  0  0  0  0  0  0  0  0  0
    0.1907    1.8825    1.8162 H   0  0  0  0  0  0  0  0  0  0  0  0
    0.0240   -0.7605    0.2911 H   0  0  0  0  0  0  0  0  0  0  0  0
    0.8168   -0.3877    1.8748 H   0  0  0  0  0  0  0  0  0  0  0  0
    1.9075    1.4181   -0.0171 H   0  0  0  0  0  0  0  0  0  0  0  0
    4.8669   -2.0717   -0.8183 H   0  0  0  0  0  0  0  0  0  0  0  0
    7.1531    1.0937   -2.4884 H   0  0  0  0  0  0  0  0  0  0  0  0
    5.3364    2.6480   -1.9025 H   0  0  0  0  0  0  0  0  0  0  0  0
  1  2  1  0
  2  3  1  0
  3  4  2  0
  4  5  1  0
  5  6  2  0
  6  7  1  0
  7  8  2  0
  3  8  1  0
  7  9  1  0
  9 10  2  0
 10 11  1  0
  6 11  1  0
  9 12  1  0
 12 13  1  0
 13 14  1  0
 14 15  1  0
 15 16  2  0
 15 17  1  0
 17 18  2  0
 18 19  1  0
 19 20  2  0
 19 21  1  0
 21 22  2  0
 22 23  1  0
 17 23  1  0
  1 24  1  0
  1 25  1  0
  1 26  1  0
  4 27  1  0
  5 28  1  0
  8 29  1  0
 10 30  1  0
 11 31  1  0
 12 32  1  0
 12 33  1  0
 13 34  1  0
 13 35  1  0
 14 36  1  0
 18 37  1  0
 21 38  1  0
 22 39  1  0
M  END

