347828237
     RDKit          3D

 70 74  0  0  0  0  0  0  0  0999 V2000
    5.5574   -1.9607    2.5155 C   0  0  0  0  0  0  0  0  0  0  0  0
    4.2843   -1.1748    2.4867 C   0  0  0  0  0  0  0  0  0  0  0  0
    3.9007   -0.7364    1.2561 C   0  0  0  0  0  0  0  0  0  0  0  0
    2.6876   -0.0056    1.2372 C   0  0  0  0  0  0  0  0  0  0  0  0
    1.9502    0.2302    2.3631 C   0  0  0  0  0  0  0  0  0  0  0  0
    2.4261   -0.2518    3.5624 C   0  0  0  0  0  0  0  0  0  0  0  0
    3.6034   -0.9590    3.6107 N   0  0  0  0  0  0  0  0  0  0  0  0
    0.5722    0.7129    2.3343 N   0  0  0  0  0  0  0  0  0  0  0  0
   -0.2419    0.3817    1.2860 C   0  0  0  0  0  0  0  0  0  0  0  0
    0.4070   -0.3946    0.3743 O   0  0  0  0  0  0  0  0  0  0  0  0
   -1.6068    0.6239    0.8962 C   0  0  0  0  0  0  0  0  0  0  0  0
   -2.3541    1.7331    1.0863 C   0  0  0  0  0  0  0  0  0  0  0  0
   -3.6854    1.8284    0.5988 C   0  0  0  0  0  0  0  0  0  0  0  0
   -4.2830    0.8052   -0.0943 C   0  0  0  0  0  0  0  0  0  0  0  0
   -3.5048   -0.3534   -0.2826 C   0  0  0  0  0  0  0  0  0  0  0  0
   -2.2407   -0.4358    0.1843 C   0  0  0  0  0  0  0  0  0  0  0  0
   -4.1764   -1.5548   -0.8661 C   0  0  0  0  0  0  0  0  0  0  0  0
   -4.6051   -1.3990   -2.1022 F   0  0  0  0  0  0  0  0  0  0  0  0
   -3.2803   -2.6328   -0.8376 F   0  0  0  0  0  0  0  0  0  0  0  0
   -5.1811   -1.9633    0.0360 F   0  0  0  0  0  0  0  0  0  0  0  0
   -5.4737    0.9271   -0.9475 C   0  0  0  0  0  0  0  0  0  0  0  0
   -6.7592    0.9818   -0.6680 N   0  0  0  0  0  0  0  0  0  0  0  0
   -7.6472    1.5822    0.1297 C   0  0  0  0  0  0  0  0  0  0  0  0
   -9.0984    1.1160   -0.0188 C   0  0  0  0  0  0  0  0  0  0  0  0
   -9.3444    0.0580   -0.8890 N   0  0  0  0  0  0  0  0  0  0  0  0
   -8.4433   -0.0790   -2.0016 C   0  0  0  0  0  0  0  0  0  0  0  0
   -7.4276    1.0038   -2.0623 C   0  0  0  0  0  0  0  0  0  0  0  0
   -9.9291   -1.1493   -0.4653 C   0  0  0  0  0  0  0  0  0  0  0  0
    4.4071   -1.2366    0.0658 N   0  0  0  0  0  0  0  0  0  0  0  0
    5.4564   -0.8246   -0.7585 C   0  0  0  0  0  0  0  0  0  0  0  0
    5.5866   -1.3397   -2.0134 N   0  0  0  0  0  0  0  0  0  0  0  0
    6.6345   -1.1976   -2.7989 C   0  0  0  0  0  0  0  0  0  0  0  0
    7.7129   -0.4891   -2.3686 C   0  0  0  0  0  0  0  0  0  0  0  0
    7.6563    0.0587   -1.1058 C   0  0  0  0  0  0  0  0  0  0  0  0
    6.5519   -0.1103   -0.3393 N   0  0  0  0  0  0  0  0  0  0  0  0
    8.9197    0.5658   -0.5535 C   0  0  0  0  0  0  0  0  0  0  0  0
    9.7026    1.4605   -1.2204 C   0  0  0  0  0  0  0  0  0  0  0  0
   10.9434    1.8143   -0.6855 C   0  0  0  0  0  0  0  0  0  0  0  0
   11.3589    1.2680    0.4859 C   0  0  0  0  0  0  0  0  0  0  0  0
   10.5914    0.3767    1.1592 N   0  0  0  0  0  0  0  0  0  0  0  0
    9.3800    0.0422    0.6155 C   0  0  0  0  0  0  0  0  0  0  0  0
    6.4037   -1.2304    2.4910 H   0  0  0  0  0  0  0  0  0  0  0  0
    5.6719   -2.6194    3.3705 H   0  0  0  0  0  0  0  0  0  0  0  0
    5.5927   -2.6085    1.5771 H   0  0  0  0  0  0  0  0  0  0  0  0
    2.3834    0.3712    0.3010 H   0  0  0  0  0  0  0  0  0  0  0  0
    1.9002   -0.0690    4.4992 H   0  0  0  0  0  0  0  0  0  0  0  0
    0.2968    1.2997    3.1304 H   0  0  0  0  0  0  0  0  0  0  0  0
   -1.8999    2.5696    1.6404 H   0  0  0  0  0  0  0  0  0  0  0  0
   -4.2246    2.7414    0.7569 H   0  0  0  0  0  0  0  0  0  0  0  0
   -1.6493   -1.3442    0.0405 H   0  0  0  0  0  0  0  0  0  0  0  0
   -5.2522    2.0899   -1.3851 H   0  0  0  0  0  0  0  0  0  0  0  0
   -5.2757    0.4711   -1.9822 H   0  0  0  0  0  0  0  0  0  0  0  0
   -7.3485    1.4636    1.2243 H   0  0  0  0  0  0  0  0  0  0  0  0
   -7.6809    2.6867    0.0101 H   0  0  0  0  0  0  0  0  0  0  0  0
   -9.7431    1.9862   -0.3618 H   0  0  0  0  0  0  0  0  0  0  0  0
   -9.4798    0.8974    0.9879 H   0  0  0  0  0  0  0  0  0  0  0  0
   -7.9411   -1.0604   -1.9162 H   0  0  0  0  0  0  0  0  0  0  0  0
   -8.9793   -0.0905   -2.9926 H   0  0  0  0  0  0  0  0  0  0  0  0
   -6.6790    0.7668   -2.8169 H   0  0  0  0  0  0  0  0  0  0  0  0
   -7.8884    2.0036   -2.1332 H   0  0  0  0  0  0  0  0  0  0  0  0
  -10.7215   -0.9848    0.2801 H   0  0  0  0  0  0  0  0  0  0  0  0
  -10.4815   -1.5729   -1.3744 H   0  0  0  0  0  0  0  0  0  0  0  0
   -9.1891   -1.9367   -0.1716 H   0  0  0  0  0  0  0  0  0  0  0  0
    3.8497   -2.1223   -0.2891 H   0  0  0  0  0  0  0  0  0  0  0  0
    6.6521   -1.6439   -3.7858 H   0  0  0  0  0  0  0  0  0  0  0  0
    8.6124   -0.3501   -3.0114 H   0  0  0  0  0  0  0  0  0  0  0  0
    9.3750    1.9269   -2.1400 H   0  0  0  0  0  0  0  0  0  0  0  0
   11.5606    2.5323   -1.1978 H   0  0  0  0  0  0  0  0  0  0  0  0
   12.3225    1.5531    0.8990 H   0  0  0  0  0  0  0  0  0  0  0  0
    8.8050   -0.6876    1.1449 H   0  0  0  0  0  0  0  0  0  0  0  0
  1  2  1  0
  2  3  2  0
  3  4  1  0
  4  5  2  0
  5  6  1  0
  6  7  2  0
  2  7  1  0
  5  8  1  0
  8  9  1  0
  9 10  2  0
  9 11  1  0
 11 12  2  0
 12 13  1  0
 13 14  2  0
 14 15  1  0
 15 16  2  0
 11 16  1  0
 15 17  1  0
 17 18  1  0
 17 19  1  0
 17 20  1  0
 14 21  1  0
 21 22  1  0
 22 23  1  0
 23 24  1  0
 24 25  1  0
 25 26  1  0
 26 27  1  0
 22 27  1  0
 25 28  1  0
  3 29  1  0
 29 30  1  0
 30 31  2  0
 31 32  1  0
 32 33  2  0
 33 34  1  0
 34 35  2  0
 30 35  1  0
 34 36  1  0
 36 37  2  0
 37 38  1  0
 38 39  2  0
 39 40  1  0
 40 41  2  0
 36 41  1  0
  1 42  1  0
  1 43  1  0
  1 44  1  0
  4 45  1  0
  6 46  1  0
  8 47  1  0
 12 48  1  0
 13 49  1  0
 16 50  1  0
 21 51  1  0
 21 52  1  0
 23 53  1  0
 23 54  1  0
 24 55  1  0
 24 56  1  0
 26 57  1  0
 26 58  1  0
 27 59  1  0
 27 60  1  0
 28 61  1  0
 28 62  1  0
 28 63  1  0
 29 64  1  0
 32 65  1  0
 33 66  1  0
 37 67  1  0
 38 68  1  0
 39 69  1  0
 41 70  1  0
M  END

