347828142
     RDKit          3D

 44 47  0  0  1  0  0  0  0  0999 V2000
    6.2558    1.2504    1.6318 C   0  0  0  0  0  0  0  0  0  0  0  0
    4.9504    1.5721    2.0120 C   0  0  0  0  0  0  0  0  0  0  0  0
    3.8656    1.0434    1.3447 C   0  0  0  0  0  0  0  0  0  0  0  0
    2.4826    1.1559    1.4656 C   0  0  0  0  0  0  0  0  0  0  0  0
    1.8822    0.3967    0.5198 N   0  0  0  0  0  0  0  0  0  0  0  0
    2.8597   -0.1747   -0.1733 N   0  0  0  0  0  0  0  0  0  0  0  0
    4.0494    0.1842    0.2857 C   0  0  0  0  0  0  0  0  0  0  0  0
    5.3488   -0.1386   -0.0960 C   0  0  0  0  0  0  0  0  0  0  0  0
    6.4369    0.3914    0.5730 C   0  0  0  0  0  0  0  0  0  0  0  0
    5.5610   -1.0403   -1.2071 C   0  0  0  0  0  0  0  0  0  0  0  0
    4.5798   -1.5166   -1.8084 O   0  0  0  0  0  0  0  0  0  0  0  0
    6.8729   -1.3740   -1.6022 N   0  0  0  0  0  0  0  0  0  0  0  0
    0.4686    0.2651    0.3387 C   0  0  0  0  0  0  0  0  0  0  0  0
   -0.2152   -0.8661    0.6823 C   0  0  0  0  0  0  0  0  0  0  0  0
   -1.5931   -0.9518    0.4885 C   0  0  0  0  0  0  0  0  0  0  0  0
   -2.3115    0.0869   -0.0502 C   0  0  0  0  0  0  0  0  0  0  0  0
   -1.6383    1.2196   -0.3962 C   0  0  0  0  0  0  0  0  0  0  0  0
   -0.2787    1.3108   -0.2077 C   0  0  0  0  0  0  0  0  0  0  0  0
   -3.7834    0.0159   -0.2655 C   0  0  2  0  0  0  0  0  0  0  0  0
   -4.4340   -0.1710    1.1057 C   0  0  0  0  0  0  0  0  0  0  0  0
   -5.8941    0.2307    0.9263 C   0  0  0  0  0  0  0  0  0  0  0  0
   -6.2970   -0.1937   -0.4618 C   0  0  0  0  0  0  0  0  0  0  0  0
   -5.6079   -1.3711   -0.9172 N   0  0  0  0  0  0  0  0  0  0  0  0
   -4.1894   -1.1505   -1.1148 C   0  0  0  0  0  0  0  0  0  0  0  0
    7.1202    1.6539    2.1416 H   0  0  0  0  0  0  0  0  0  0  0  0
    4.7936    2.2439    2.8399 H   0  0  0  0  0  0  0  0  0  0  0  0
    1.9935    1.7591    2.2043 H   0  0  0  0  0  0  0  0  0  0  0  0
    7.4303    0.0954    0.2204 H   0  0  0  0  0  0  0  0  0  0  0  0
    7.2427   -2.3350   -1.7004 H   0  0  0  0  0  0  0  0  0  0  0  0
    7.5226   -0.5647   -1.8128 H   0  0  0  0  0  0  0  0  0  0  0  0
    0.2918   -1.6990    1.1028 H   0  0  0  0  0  0  0  0  0  0  0  0
   -2.1261   -1.8593    0.7668 H   0  0  0  0  0  0  0  0  0  0  0  0
   -2.1622    2.0534   -0.8199 H   0  0  0  0  0  0  0  0  0  0  0  0
    0.2570    2.2059   -0.4805 H   0  0  0  0  0  0  0  0  0  0  0  0
   -4.1483    0.9627   -0.7085 H   0  0  0  0  0  0  0  0  0  0  0  0
   -4.3455   -1.2618    1.3259 H   0  0  0  0  0  0  0  0  0  0  0  0
   -3.9261    0.4569    1.8649 H   0  0  0  0  0  0  0  0  0  0  0  0
   -6.5408   -0.1470    1.7174 H   0  0  0  0  0  0  0  0  0  0  0  0
   -5.9098    1.3492    0.9849 H   0  0  0  0  0  0  0  0  0  0  0  0
   -7.3748   -0.3989   -0.4662 H   0  0  0  0  0  0  0  0  0  0  0  0
   -6.1052    0.6153   -1.1938 H   0  0  0  0  0  0  0  0  0  0  0  0
   -5.8145   -2.2140   -0.3526 H   0  0  0  0  0  0  0  0  0  0  0  0
   -3.6572   -2.0639   -0.7552 H   0  0  0  0  0  0  0  0  0  0  0  0
   -3.9125   -1.0267   -2.1728 H   0  0  0  0  0  0  0  0  0  0  0  0
  1  2  2  0
  2  3  1  0
  3  4  2  0
  4  5  1  0
  5  6  1  0
  6  7  2  0
  3  7  1  0
  7  8  1  0
  8  9  2  0
  1  9  1  0
  8 10  1  0
 10 11  2  0
 10 12  1  0
  5 13  1  0
 13 14  2  0
 14 15  1  0
 15 16  2  0
 16 17  1  0
 17 18  2  0
 13 18  1  0
 19 16  1  0
 19 20  1  0
 20 21  1  0
 21 22  1  0
 22 23  1  0
 23 24  1  0
 19 24  1  0
  1 25  1  0
  2 26  1  0
  4 27  1  0
  9 28  1  0
 12 29  1  0
 12 30  1  0
 14 31  1  0
 15 32  1  0
 17 33  1  0
 18 34  1  0
 19 35  1  6
 20 36  1  0
 20 37  1  0
 21 38  1  0
 21 39  1  0
 22 40  1  0
 22 41  1  0
 23 42  1  0
 24 43  1  0
 24 44  1  0
M  END

