347828558
     RDKit          3D

 50 53  0  0  1  0  0  0  0  0999 V2000
   -1.9529   -0.0085    0.0232 C   0  0  1  0  0  0  0  0  0  0  0  0
   -2.4971    1.4181   -0.0926 C   0  0  1  0  0  0  0  0  0  0  0  0
   -3.4495    1.5688    1.1007 C   0  0  2  0  0  0  0  0  0  0  0  0
   -4.6395    0.7446    0.6506 C   0  0  1  0  0  0  0  0  0  0  0  0
   -4.1740   -0.6742    0.4264 C   0  0  2  0  0  0  0  0  0  0  0  0
   -3.0041   -0.9010   -0.1970 O   0  0  0  0  0  0  0  0  0  0  0  0
   -1.3770    2.2704    0.1258 O   0  0  0  0  0  0  0  0  0  0  0  0
   -3.7056    2.8751    1.3644 O   0  0  0  0  0  0  0  0  0  0  0  0
   -5.6521    0.7690    1.5964 O   0  0  0  0  0  0  0  0  0  0  0  0
   -5.2977   -1.3279   -0.3691 C   0  0  0  0  0  0  0  0  0  0  0  0
   -5.1455   -2.7022   -0.5191 O   0  0  0  0  0  0  0  0  0  0  0  0
   -0.9747   -0.1445   -1.0593 C   0  0  0  0  0  0  0  0  0  0  0  0
    0.3857   -0.2554   -0.6951 C   0  0  0  0  0  0  0  0  0  0  0  0
    1.3832   -0.4249   -1.6216 C   0  0  0  0  0  0  0  0  0  0  0  0
    0.6965   -0.1741    0.5784 O   0  0  0  0  0  0  0  0  0  0  0  0
   -1.2717   -0.2171   -2.4011 C   0  0  0  0  0  0  0  0  0  0  0  0
    2.6806   -0.5013   -1.1818 C   0  0  0  0  0  0  0  0  0  0  0  0
    1.0220   -0.4920   -2.9484 C   0  0  0  0  0  0  0  0  0  0  0  0
    1.9331   -0.2434    1.0143 C   0  0  0  0  0  0  0  0  0  0  0  0
   -0.2638   -0.3942   -3.3738 C   0  0  0  0  0  0  0  0  0  0  0  0
   -2.5539   -0.1266   -2.8611 O   0  0  0  0  0  0  0  0  0  0  0  0
    3.0056   -0.4088    0.1593 C   0  0  0  0  0  0  0  0  0  0  0  0
    3.6232   -0.6550   -2.0001 O   0  0  0  0  0  0  0  0  0  0  0  0
    4.3835   -0.4088    0.6402 C   0  0  0  0  0  0  0  0  0  0  0  0
    5.3527    0.3630   -0.0106 C   0  0  0  0  0  0  0  0  0  0  0  0
    4.8214   -1.1209    1.7356 C   0  0  0  0  0  0  0  0  0  0  0  0
    6.6566    0.4388    0.3803 C   0  0  0  0  0  0  0  0  0  0  0  0
    6.1527   -1.0593    2.1522 C   0  0  0  0  0  0  0  0  0  0  0  0
    7.0828   -0.2828    1.4819 C   0  0  0  0  0  0  0  0  0  0  0  0
    8.3964   -0.2032    1.8752 O   0  0  0  0  0  0  0  0  0  0  0  0
   -1.5013   -0.1318    1.0009 H   0  0  0  0  0  0  0  0  0  0  0  0
   -2.9352    1.6562   -1.0209 H   0  0  0  0  0  0  0  0  0  0  0  0
   -2.9757    1.0255    1.9566 H   0  0  0  0  0  0  0  0  0  0  0  0
   -5.0383    1.1636   -0.3096 H   0  0  0  0  0  0  0  0  0  0  0  0
   -4.2086   -1.1944    1.4320 H   0  0  0  0  0  0  0  0  0  0  0  0
   -1.0073    2.1503    1.0177 H   0  0  0  0  0  0  0  0  0  0  0  0
   -3.2994    3.0950    2.2632 H   0  0  0  0  0  0  0  0  0  0  0  0
   -5.7598    1.7174    1.9515 H   0  0  0  0  0  0  0  0  0  0  0  0
   -6.2779   -1.1662    0.1542 H   0  0  0  0  0  0  0  0  0  0  0  0
   -5.3469   -0.8905   -1.3883 H   0  0  0  0  0  0  0  0  0  0  0  0
   -5.1365   -2.9785   -1.4714 H   0  0  0  0  0  0  0  0  0  0  0  0
    1.8377   -0.6328   -3.6629 H   0  0  0  0  0  0  0  0  0  0  0  0
    2.1699   -0.1701    2.0740 H   0  0  0  0  0  0  0  0  0  0  0  0
   -0.5650   -0.4518   -4.4044 H   0  0  0  0  0  0  0  0  0  0  0  0
   -3.3616   -0.0573   -2.3188 H   0  0  0  0  0  0  0  0  0  0  0  0
    5.0695    0.9585   -0.8992 H   0  0  0  0  0  0  0  0  0  0  0  0
    4.1319   -1.7374    2.2893 H   0  0  0  0  0  0  0  0  0  0  0  0
    7.3588    1.0721   -0.1770 H   0  0  0  0  0  0  0  0  0  0  0  0
    6.4789   -1.6294    3.0103 H   0  0  0  0  0  0  0  0  0  0  0  0
    8.7501    0.4796    2.5287 H   0  0  0  0  0  0  0  0  0  0  0  0
  4  9  1  0
  5 10  1  0
 10 11  1  0
  1 12  1  0
  1  2  1  0
  2  3  1  0
  3  4  1  0
  4  5  1  0
  5  6  1  0
  1  6  1  0
  2  7  1  0
  3  8  1  0
 12 13  2  0
 13 14  1  0
 13 15  1  0
 12 16  1  0
 14 17  1  0
 14 18  2  0
 15 19  1  0
 16 20  2  0
 16 21  1  0
 17 22  1  0
 17 23  2  0
 22 24  1  0
 24 25  2  0
 24 26  1  0
 25 27  1  0
 26 28  2  0
 27 29  2  0
 29 30  1  0
 18 20  1  0
 19 22  2  0
 28 29  1  0
  1 31  1  1
  2 32  1  6
  3 33  1  1
  4 34  1  6
  5 35  1  1
  7 36  1  0
  8 37  1  0
  9 38  1  0
 10 39  1  0
 10 40  1  0
 11 41  1  0
 18 42  1  0
 19 43  1  0
 20 44  1  0
 21 45  1  0
 25 46  1  0
 26 47  1  0
 27 48  1  0
 28 49  1  0
 30 50  1  0
M  END

