347828703
     RDKit          3D

 54 56  0  0  0  0  0  0  0  0999 V2000
    3.3437   -2.4647   -2.1176 C   0  0  0  0  0  0  0  0  0  0  0  0
    3.5318   -1.8982   -0.8788 O   0  0  0  0  0  0  0  0  0  0  0  0
    2.5292   -1.4894   -0.0230 C   0  0  0  0  0  0  0  0  0  0  0  0
    1.1889   -1.6071   -0.3442 C   0  0  0  0  0  0  0  0  0  0  0  0
    0.1655   -1.2084    0.5084 C   0  0  0  0  0  0  0  0  0  0  0  0
    0.4618   -0.6772    1.7348 C   0  0  0  0  0  0  0  0  0  0  0  0
    1.7807   -0.5521    2.0680 C   0  0  0  0  0  0  0  0  0  0  0  0
    2.8162   -0.9454    1.2097 C   0  0  0  0  0  0  0  0  0  0  0  0
    4.0787   -0.7318    1.6979 O   0  0  0  0  0  0  0  0  0  0  0  0
    5.0178    0.1337    1.1814 C   0  0  0  0  0  0  0  0  0  0  0  0
    4.7983    0.8919    0.0585 C   0  0  0  0  0  0  0  0  0  0  0  0
    5.7175    1.7561   -0.4590 N   0  0  0  0  0  0  0  0  0  0  0  0
    6.9144    1.8807    0.1654 C   0  0  0  0  0  0  0  0  0  0  0  0
    7.1583    1.1262    1.2995 C   0  0  0  0  0  0  0  0  0  0  0  0
    6.2272    0.2646    1.8012 N   0  0  0  0  0  0  0  0  0  0  0  0
    7.8949    2.8256   -0.3617 C   0  0  0  0  0  0  0  0  0  0  0  0
    7.7004    3.4812   -1.4131 O   0  0  0  0  0  0  0  0  0  0  0  0
    9.1254    3.0371    0.3239 N   0  0  0  0  0  0  0  0  0  0  0  0
   -1.2250   -1.2537   -0.0236 C   0  0  0  0  0  0  0  0  0  0  0  0
   -2.2562   -1.3066    0.9539 N   0  0  0  0  0  0  0  0  0  0  0  0
   -3.0253   -0.1541    1.1890 C   0  0  0  0  0  0  0  0  0  0  0  0
   -3.9088    0.4463    0.2117 C   0  0  0  0  0  0  0  0  0  0  0  0
   -5.0687   -0.2523   -0.3758 C   0  0  0  0  0  0  0  0  0  0  0  0
   -5.7535    0.7296   -1.3356 C   0  0  0  0  0  0  0  0  0  0  0  0
   -6.7035    1.6324   -0.6037 C   0  0  0  0  0  0  0  0  0  0  0  0
   -7.5266    0.9541    0.2986 O   0  0  0  0  0  0  0  0  0  0  0  0
   -7.4366   -0.3936    0.1096 C   0  0  0  0  0  0  0  0  0  0  0  0
   -6.0543   -0.8369    0.5910 C   0  0  0  0  0  0  0  0  0  0  0  0
    2.3370   -2.4276   -2.5353 H   0  0  0  0  0  0  0  0  0  0  0  0
    3.5678   -3.5831   -2.0216 H   0  0  0  0  0  0  0  0  0  0  0  0
    4.1260   -2.1360   -2.8550 H   0  0  0  0  0  0  0  0  0  0  0  0
    0.9278   -2.0287   -1.3018 H   0  0  0  0  0  0  0  0  0  0  0  0
   -0.3603   -0.3871    2.3876 H   0  0  0  0  0  0  0  0  0  0  0  0
    2.0072   -0.1251    3.0615 H   0  0  0  0  0  0  0  0  0  0  0  0
    3.8276    0.7701   -0.4203 H   0  0  0  0  0  0  0  0  0  0  0  0
    8.1061    1.2423    1.7707 H   0  0  0  0  0  0  0  0  0  0  0  0
    9.5587    3.9770    0.4316 H   0  0  0  0  0  0  0  0  0  0  0  0
    9.6037    2.2238    0.7458 H   0  0  0  0  0  0  0  0  0  0  0  0
   -1.3162   -0.5357   -0.8239 H   0  0  0  0  0  0  0  0  0  0  0  0
   -1.2794   -2.2973   -0.5332 H   0  0  0  0  0  0  0  0  0  0  0  0
   -1.9265   -1.7428    1.8252 H   0  0  0  0  0  0  0  0  0  0  0  0
   -2.3934    0.6871    1.6399 H   0  0  0  0  0  0  0  0  0  0  0  0
   -3.6695   -0.4155    2.1069 H   0  0  0  0  0  0  0  0  0  0  0  0
   -3.2916    0.8413   -0.6663 H   0  0  0  0  0  0  0  0  0  0  0  0
   -4.2572    1.4560    0.6685 H   0  0  0  0  0  0  0  0  0  0  0  0
   -4.7259   -1.0892   -1.0443 H   0  0  0  0  0  0  0  0  0  0  0  0
   -4.9303    1.4116   -1.7033 H   0  0  0  0  0  0  0  0  0  0  0  0
   -6.1743    0.2315   -2.2025 H   0  0  0  0  0  0  0  0  0  0  0  0
   -6.1753    2.4595   -0.1067 H   0  0  0  0  0  0  0  0  0  0  0  0
   -7.3614    2.1053   -1.3595 H   0  0  0  0  0  0  0  0  0  0  0  0
   -7.4647   -0.6549   -0.9624 H   0  0  0  0  0  0  0  0  0  0  0  0
   -8.2580   -0.9722    0.6090 H   0  0  0  0  0  0  0  0  0  0  0  0
   -5.9503   -0.4368    1.6194 H   0  0  0  0  0  0  0  0  0  0  0  0
   -6.0199   -1.9617    0.6025 H   0  0  0  0  0  0  0  0  0  0  0  0
  1  2  1  0
  2  3  1  0
  3  4  2  0
  4  5  1  0
  5  6  2  0
  6  7  1  0
  7  8  2  0
  3  8  1  0
  8  9  1  0
  9 10  1  0
 10 11  2  0
 11 12  1  0
 12 13  2  0
 13 14  1  0
 14 15  2  0
 10 15  1  0
 13 16  1  0
 16 17  2  0
 16 18  1  0
  5 19  1  0
 19 20  1  0
 20 21  1  0
 21 22  1  0
 22 23  1  0
 23 24  1  0
 24 25  1  0
 25 26  1  0
 26 27  1  0
 27 28  1  0
 23 28  1  0
  1 29  1  0
  1 30  1  0
  1 31  1  0
  4 32  1  0
  6 33  1  0
  7 34  1  0
 11 35  1  0
 14 36  1  0
 18 37  1  0
 18 38  1  0
 19 39  1  0
 19 40  1  0
 20 41  1  0
 21 42  1  0
 21 43  1  0
 22 44  1  0
 22 45  1  0
 23 46  1  0
 24 47  1  0
 24 48  1  0
 25 49  1  0
 25 50  1  0
 27 51  1  0
 27 52  1  0
 28 53  1  0
 28 54  1  0
M  END

