347829046
     RDKit          3D

 84 89  0  0  0  0  0  0  0  0999 V2000
   -1.4113    3.8774   -0.0909 C   0  0  0  0  0  0  0  0  0  0  0  0
   -0.5194    2.7366   -0.1008 N   0  0  0  0  0  0  0  0  0  0  0  0
    0.8409    2.7640   -0.0833 C   0  0  0  0  0  0  0  0  0  0  0  0
    1.3277    1.4890   -0.0993 C   0  0  0  0  0  0  0  0  0  0  0  0
    0.2010    0.6737   -0.1271 C   0  0  0  0  0  0  0  0  0  0  0  0
   -0.9420    1.4555   -0.1286 C   0  0  0  0  0  0  0  0  0  0  0  0
   -2.3223    0.9967   -0.1611 C   0  0  0  0  0  0  0  0  0  0  0  0
   -3.2351    1.8522   -0.1582 O   0  0  0  0  0  0  0  0  0  0  0  0
   -2.6139   -0.3629   -0.1953 N   0  0  0  0  0  0  0  0  0  0  0  0
   -3.9523   -0.8891   -0.2311 C   0  0  0  0  0  0  0  0  0  0  0  0
   -5.1443   -0.2027   -0.2759 C   0  0  0  0  0  0  0  0  0  0  0  0
   -6.1778   -1.1442   -0.2954 C   0  0  0  0  0  0  0  0  0  0  0  0
   -5.6425   -2.3669   -0.2643 N   0  0  0  0  0  0  0  0  0  0  0  0
   -4.3035   -2.2252   -0.2252 C   0  0  0  0  0  0  0  0  0  0  0  0
   -6.3583   -3.6545   -0.2694 C   0  0  0  0  0  0  0  0  0  0  0  0
   -7.5994   -0.8401   -0.3464 C   0  0  0  0  0  0  0  0  0  0  0  0
   -8.4080   -1.7996   -0.3349 O   0  0  0  0  0  0  0  0  0  0  0  0
   -8.0757    0.4994   -0.4085 N   0  0  0  0  0  0  0  0  0  0  0  0
   -9.4630    0.8833   -0.4573 C   0  0  0  0  0  0  0  0  0  0  0  0
  -10.1803    0.4125    0.7699 C   0  0  0  0  0  0  0  0  0  0  0  0
  -11.5603    0.7679    0.8139 N   0  0  0  0  0  0  0  0  0  0  0  0
  -12.1395    0.2805    2.0469 C   0  0  0  0  0  0  0  0  0  0  0  0
  -12.8858   -1.0054    1.9128 C   0  0  0  0  0  0  0  0  0  0  0  0
  -12.4417   -1.7824    0.8501 O   0  0  0  0  0  0  0  0  0  0  0  0
  -12.5199   -1.1308   -0.3562 C   0  0  0  0  0  0  0  0  0  0  0  0
  -12.3636    0.3536   -0.2839 C   0  0  0  0  0  0  0  0  0  0  0  0
    2.6719    1.0427   -0.1019 N   0  0  0  0  0  0  0  0  0  0  0  0
    3.7833    1.9152   -0.1550 C   0  0  0  0  0  0  0  0  0  0  0  0
    3.6236    3.1864   -0.2027 O   0  0  0  0  0  0  0  0  0  0  0  0
    5.1703    1.4681   -0.1617 C   0  0  0  0  0  0  0  0  0  0  0  0
    5.5305    0.1513    0.0440 C   0  0  0  0  0  0  0  0  0  0  0  0
    6.8592   -0.2745    0.0307 C   0  0  0  0  0  0  0  0  0  0  0  0
    7.8556    0.6261   -0.1926 C   0  0  0  0  0  0  0  0  0  0  0  0
    7.4963    1.9394   -0.3977 C   0  0  0  0  0  0  0  0  0  0  0  0
    6.2023    2.3561   -0.3848 C   0  0  0  0  0  0  0  0  0  0  0  0
    9.2725    0.2890   -0.2272 C   0  0  0  0  0  0  0  0  0  0  0  0
    9.7839   -0.8990   -0.0484 C   0  0  0  0  0  0  0  0  0  0  0  0
   11.1993   -1.2365   -0.0834 C   0  0  0  0  0  0  0  0  0  0  0  0
   12.1790   -0.3021   -0.3216 C   0  0  0  0  0  0  0  0  0  0  0  0
   13.5311   -0.6685   -0.3437 C   0  0  0  0  0  0  0  0  0  0  0  0
   14.5185    0.2494   -0.5787 C   0  0  0  0  0  0  0  0  0  0  0  0
   15.8652   -0.1105   -0.6009 C   0  0  0  0  0  0  0  0  0  0  0  0
   16.1841   -1.4314   -0.3770 C   0  0  0  0  0  0  0  0  0  0  0  0
   15.2114   -2.3685   -0.1397 C   0  0  0  0  0  0  0  0  0  0  0  0
   13.8761   -1.9778   -0.1241 C   0  0  0  0  0  0  0  0  0  0  0  0
   12.9155   -2.8956    0.1098 N   0  0  0  0  0  0  0  0  0  0  0  0
   11.6156   -2.5334    0.1291 C   0  0  0  0  0  0  0  0  0  0  0  0
   -1.9709    3.9103   -1.0606 H   0  0  0  0  0  0  0  0  0  0  0  0
   -0.8632    4.8265    0.0795 H   0  0  0  0  0  0  0  0  0  0  0  0
   -2.1665    3.7745    0.7160 H   0  0  0  0  0  0  0  0  0  0  0  0
    1.4317    3.6867   -0.0574 H   0  0  0  0  0  0  0  0  0  0  0  0
    0.2437   -0.4092   -0.1437 H   0  0  0  0  0  0  0  0  0  0  0  0
   -1.8042   -1.0539   -0.1963 H   0  0  0  0  0  0  0  0  0  0  0  0
   -5.2972    0.8478   -0.2922 H   0  0  0  0  0  0  0  0  0  0  0  0
   -3.5864   -3.0343   -0.1941 H   0  0  0  0  0  0  0  0  0  0  0  0
   -7.0826   -3.7184    0.5536 H   0  0  0  0  0  0  0  0  0  0  0  0
   -5.6385   -4.4799   -0.2831 H   0  0  0  0  0  0  0  0  0  0  0  0
   -6.9308   -3.7368   -1.2337 H   0  0  0  0  0  0  0  0  0  0  0  0
   -7.3543    1.2599   -0.4203 H   0  0  0  0  0  0  0  0  0  0  0  0
   -9.9648    0.4726   -1.3839 H   0  0  0  0  0  0  0  0  0  0  0  0
   -9.5588    1.9919   -0.4878 H   0  0  0  0  0  0  0  0  0  0  0  0
   -9.9862   -0.6618    0.9031 H   0  0  0  0  0  0  0  0  0  0  0  0
   -9.6920    0.9506    1.6362 H   0  0  0  0  0  0  0  0  0  0  0  0
  -11.3011    0.2135    2.8004 H   0  0  0  0  0  0  0  0  0  0  0  0
  -12.8669    1.0305    2.4724 H   0  0  0  0  0  0  0  0  0  0  0  0
  -13.9806   -0.8567    1.7722 H   0  0  0  0  0  0  0  0  0  0  0  0
  -12.7373   -1.6266    2.8380 H   0  0  0  0  0  0  0  0  0  0  0  0
  -11.7677   -1.5165   -1.0957 H   0  0  0  0  0  0  0  0  0  0  0  0
  -13.5405   -1.3884   -0.7762 H   0  0  0  0  0  0  0  0  0  0  0  0
  -11.9769    0.7215   -1.2671 H   0  0  0  0  0  0  0  0  0  0  0  0
  -13.3859    0.8033   -0.1257 H   0  0  0  0  0  0  0  0  0  0  0  0
    2.8887   -0.0004   -0.0598 H   0  0  0  0  0  0  0  0  0  0  0  0
    4.7713   -0.5807    0.2238 H   0  0  0  0  0  0  0  0  0  0  0  0
    7.0863   -1.3041    0.1953 H   0  0  0  0  0  0  0  0  0  0  0  0
    8.2580    2.7105   -0.5837 H   0  0  0  0  0  0  0  0  0  0  0  0
    5.9346    3.3996   -0.5466 H   0  0  0  0  0  0  0  0  0  0  0  0
    9.9763    1.0918   -0.4177 H   0  0  0  0  0  0  0  0  0  0  0  0
    9.0718   -1.7091    0.1469 H   0  0  0  0  0  0  0  0  0  0  0  0
   11.9194    0.7213   -0.4938 H   0  0  0  0  0  0  0  0  0  0  0  0
   14.2497    1.2647   -0.7480 H   0  0  0  0  0  0  0  0  0  0  0  0
   16.5876    0.6649   -0.7932 H   0  0  0  0  0  0  0  0  0  0  0  0
   17.2350   -1.7399   -0.3885 H   0  0  0  0  0  0  0  0  0  0  0  0
   15.4695   -3.3962    0.0339 H   0  0  0  0  0  0  0  0  0  0  0  0
   10.8746   -3.2940    0.3186 H   0  0  0  0  0  0  0  0  0  0  0  0
  1  2  1  0
  2  3  1  0
  3  4  2  0
  4  5  1  0
  5  6  2  0
  2  6  1  0
  6  7  1  0
  7  8  2  0
  7  9  1  0
  9 10  1  0
 10 11  1  0
 11 12  2  0
 12 13  1  0
 13 14  1  0
 10 14  2  0
 13 15  1  0
 12 16  1  0
 16 17  2  0
 16 18  1  0
 18 19  1  0
 19 20  1  0
 20 21  1  0
 21 22  1  0
 22 23  1  0
 23 24  1  0
 24 25  1  0
 25 26  1  0
 21 26  1  0
  4 27  1  0
 27 28  1  0
 28 29  2  0
 28 30  1  0
 30 31  2  0
 31 32  1  0
 32 33  2  0
 33 34  1  0
 34 35  2  0
 30 35  1  0
 33 36  1  0
 36 37  2  0
 37 38  1  0
 38 39  2  0
 39 40  1  0
 40 41  2  0
 41 42  1  0
 42 43  2  0
 43 44  1  0
 44 45  2  0
 40 45  1  0
 45 46  1  0
 46 47  2  0
 38 47  1  0
  1 48  1  0
  1 49  1  0
  1 50  1  0
  3 51  1  0
  5 52  1  0
  9 53  1  0
 11 54  1  0
 14 55  1  0
 15 56  1  0
 15 57  1  0
 15 58  1  0
 18 59  1  0
 19 60  1  0
 19 61  1  0
 20 62  1  0
 20 63  1  0
 22 64  1  0
 22 65  1  0
 23 66  1  0
 23 67  1  0
 25 68  1  0
 25 69  1  0
 26 70  1  0
 26 71  1  0
 27 72  1  0
 31 73  1  0
 32 74  1  0
 34 75  1  0
 35 76  1  0
 36 77  1  0
 37 78  1  0
 39 79  1  0
 41 80  1  0
 42 81  1  0
 43 82  1  0
 44 83  1  0
 47 84  1  0
M  END

