347828605
     RDKit          3D

 61 65  0  0  1  0  0  0  0  0999 V2000
    2.3392   -1.3064   -1.6258 C   0  0  0  0  0  0  0  0  0  0  0  0
    2.3473   -0.2073   -0.5762 C   0  0  2  0  0  0  0  0  0  0  0  0
    3.1062    0.9478   -1.1480 C   0  0  0  0  0  0  0  0  0  0  0  0
    4.5946    0.7307   -1.0887 C   0  0  0  0  0  0  0  0  0  0  0  0
    4.9415    0.6809    0.3927 C   0  0  1  0  0  0  0  0  0  0  0  0
    4.3436   -0.5678    0.9362 C   0  0  0  0  0  0  0  0  0  0  0  0
    2.8753   -0.7109    0.7489 C   0  0  1  0  0  0  0  0  0  0  0  0
    2.1421   -0.0907    1.9110 C   0  0  0  0  0  0  0  0  0  0  0  0
    0.6683   -0.4946    1.9658 C   0  0  0  0  0  0  0  0  0  0  0  0
    0.1891   -0.7237    0.5237 C   0  0  2  0  0  0  0  0  0  0  0  0
    0.9390    0.2744   -0.3019 C   0  0  2  0  0  0  0  0  0  0  0  0
    0.1828    0.6688   -1.5468 C   0  0  0  0  0  0  0  0  0  0  0  0
   -1.0751    1.3073   -0.9896 C   0  0  0  0  0  0  0  0  0  0  0  0
   -1.9723    0.1629   -0.5265 C   0  0  1  0  0  0  0  0  0  0  0  0
   -1.2594   -0.8108    0.3508 C   0  0  2  0  0  0  0  0  0  0  0  0
   -2.0208   -0.7275    1.6878 C   0  0  0  0  0  0  0  0  0  0  0  0
   -2.5978    0.6656    1.7141 C   0  0  0  0  0  0  0  0  0  0  0  0
   -3.0717    0.7953    0.2649 C   0  0  2  0  0  0  0  0  0  0  0  0
   -4.4152    0.2716    0.0776 C   0  0  0  0  0  0  0  0  0  0  0  0
   -5.5832    1.0415    0.1426 C   0  0  0  0  0  0  0  0  0  0  0  0
   -6.6384    0.2161   -0.0800 C   0  0  0  0  0  0  0  0  0  0  0  0
   -6.1892   -0.9821   -0.2714 O   0  0  0  0  0  0  0  0  0  0  0  0
   -4.8756   -0.9902   -0.1857 C   0  0  0  0  0  0  0  0  0  0  0  0
   -3.1135    2.1880    0.0323 O   0  0  0  0  0  0  0  0  0  0  0  0
   -1.5770   -2.0985   -0.1450 O   0  0  0  0  0  0  0  0  0  0  0  0
   -2.5269   -0.4470   -1.7968 C   0  0  0  0  0  0  0  0  0  0  0  0
    6.3336    0.5639    0.4531 O   0  0  0  0  0  0  0  0  0  0  0  0
    3.3918   -1.5658   -1.8369 H   0  0  0  0  0  0  0  0  0  0  0  0
    1.8906   -0.8908   -2.5352 H   0  0  0  0  0  0  0  0  0  0  0  0
    1.8173   -2.2120   -1.3242 H   0  0  0  0  0  0  0  0  0  0  0  0
    2.8650    1.8610   -0.5918 H   0  0  0  0  0  0  0  0  0  0  0  0
    2.8151    1.0203   -2.2293 H   0  0  0  0  0  0  0  0  0  0  0  0
    5.0867    1.5626   -1.6207 H   0  0  0  0  0  0  0  0  0  0  0  0
    4.9072   -0.2414   -1.5359 H   0  0  0  0  0  0  0  0  0  0  0  0
    4.5770    1.6084    0.8591 H   0  0  0  0  0  0  0  0  0  0  0  0
    4.5567   -0.6014    2.0342 H   0  0  0  0  0  0  0  0  0  0  0  0
    4.8700   -1.4246    0.4852 H   0  0  0  0  0  0  0  0  0  0  0  0
    2.6503   -1.8148    0.7801 H   0  0  0  0  0  0  0  0  0  0  0  0
    2.2598    1.0065    1.9370 H   0  0  0  0  0  0  0  0  0  0  0  0
    2.6486   -0.4658    2.8386 H   0  0  0  0  0  0  0  0  0  0  0  0
    0.6216   -1.4387    2.5366 H   0  0  0  0  0  0  0  0  0  0  0  0
    0.1526    0.3274    2.4608 H   0  0  0  0  0  0  0  0  0  0  0  0
    0.6723   -1.7254    0.2853 H   0  0  0  0  0  0  0  0  0  0  0  0
    1.0581    1.2195    0.2931 H   0  0  0  0  0  0  0  0  0  0  0  0
   -0.0112   -0.2412   -2.1216 H   0  0  0  0  0  0  0  0  0  0  0  0
    0.7904    1.4373   -2.0779 H   0  0  0  0  0  0  0  0  0  0  0  0
   -0.8213    1.9455   -0.1107 H   0  0  0  0  0  0  0  0  0  0  0  0
   -1.6175    1.8888   -1.7485 H   0  0  0  0  0  0  0  0  0  0  0  0
   -2.8873   -1.4272    1.6824 H   0  0  0  0  0  0  0  0  0  0  0  0
   -1.4015   -0.9850    2.5432 H   0  0  0  0  0  0  0  0  0  0  0  0
   -3.4897    0.7412    2.3472 H   0  0  0  0  0  0  0  0  0  0  0  0
   -1.8878    1.4634    1.9230 H   0  0  0  0  0  0  0  0  0  0  0  0
   -5.6725    2.0957    0.3301 H   0  0  0  0  0  0  0  0  0  0  0  0
   -7.7186    0.4380   -0.1099 H   0  0  0  0  0  0  0  0  0  0  0  0
   -4.3040   -1.8683   -0.3095 H   0  0  0  0  0  0  0  0  0  0  0  0
   -3.7315    2.5983    0.6637 H   0  0  0  0  0  0  0  0  0  0  0  0
   -0.7752   -2.5270   -0.5581 H   0  0  0  0  0  0  0  0  0  0  0  0
   -1.9435   -0.1337   -2.7150 H   0  0  0  0  0  0  0  0  0  0  0  0
   -3.5617   -0.0593   -2.0222 H   0  0  0  0  0  0  0  0  0  0  0  0
   -2.4672   -1.5492   -1.8193 H   0  0  0  0  0  0  0  0  0  0  0  0
    6.5726   -0.3996    0.3974 H   0  0  0  0  0  0  0  0  0  0  0  0
  2  1  1  6
  2  3  1  0
  3  4  1  0
  4  5  1  0
  5  6  1  0
  7  6  1  0
  2  7  1  0
  7  8  1  0
  8  9  1  0
 10  9  1  0
 10 11  1  0
  2 11  1  0
 11 12  1  0
 12 13  1  0
 13 14  1  0
 14 15  1  0
 10 15  1  0
 15 16  1  0
 16 17  1  0
 17 18  1  0
 14 18  1  0
 18 19  1  0
 19 20  1  0
 20 21  2  0
 21 22  1  0
 22 23  1  0
 19 23  2  0
 18 24  1  6
 15 25  1  6
 14 26  1  6
  5 27  1  0
  1 28  1  0
  1 29  1  0
  1 30  1  0
  3 31  1  0
  3 32  1  0
  4 33  1  0
  4 34  1  0
  5 35  1  1
  6 36  1  0
  6 37  1  0
  7 38  1  6
  8 39  1  0
  8 40  1  0
  9 41  1  0
  9 42  1  0
 10 43  1  6
 11 44  1  1
 12 45  1  0
 12 46  1  0
 13 47  1  0
 13 48  1  0
 16 49  1  0
 16 50  1  0
 17 51  1  0
 17 52  1  0
 20 53  1  0
 21 54  1  0
 23 55  1  0
 24 56  1  0
 25 57  1  0
 26 58  1  0
 26 59  1  0
 26 60  1  0
 27 61  1  0
M  END

