347828424
     RDKit          3D

 32 35  0  0  1  0  0  0  0  0999 V2000
    4.1171    0.2735    0.4982 C   0  0  0  0  0  0  0  0  0  0  0  0
    3.1940   -0.7333    0.6547 C   0  0  0  0  0  0  0  0  0  0  0  0
    1.9941   -0.6032   -0.0238 C   0  0  0  0  0  0  0  0  0  0  0  0
    1.7281    0.4879   -0.8252 C   0  0  0  0  0  0  0  0  0  0  0  0
    2.6702    1.4462   -0.9424 N   0  0  0  0  0  0  0  0  0  0  0  0
    3.8517    1.3511   -0.2946 C   0  0  0  0  0  0  0  0  0  0  0  0
    0.4236    0.5405   -1.5084 C   0  0  0  0  0  0  0  0  0  0  0  0
   -0.6432    0.0866   -0.5607 C   0  0  2  0  0  0  0  0  0  0  0  0
   -1.9862    0.2080   -1.2414 C   0  0  0  0  0  0  0  0  0  0  0  0
   -2.8686    0.9650   -0.2568 C   0  0  0  0  0  0  0  0  0  0  0  0
   -2.1989    0.6717    1.0175 N   0  0  0  0  0  0  0  0  0  0  0  0
   -0.8046    0.9600    0.6406 C   0  0  0  0  0  0  0  0  0  0  0  0
   -2.3691   -0.7475    1.2517 C   0  0  0  0  0  0  0  0  0  0  0  0
   -1.0732   -1.5076    1.2258 C   0  0  0  0  0  0  0  0  0  0  0  0
   -0.3620   -1.3110   -0.1105 C   0  0  2  0  0  0  0  0  0  0  0  0
    1.0049   -1.5688    0.0744 O   0  0  0  0  0  0  0  0  0  0  0  0
    5.0504    0.1819    1.0200 H   0  0  0  0  0  0  0  0  0  0  0  0
    3.4001   -1.6011    1.2893 H   0  0  0  0  0  0  0  0  0  0  0  0
    4.5718    2.1461   -0.4225 H   0  0  0  0  0  0  0  0  0  0  0  0
    0.4610   -0.1922   -2.3425 H   0  0  0  0  0  0  0  0  0  0  0  0
    0.2133    1.5224   -1.9708 H   0  0  0  0  0  0  0  0  0  0  0  0
   -2.3925   -0.7875   -1.4881 H   0  0  0  0  0  0  0  0  0  0  0  0
   -1.8924    0.8013   -2.1795 H   0  0  0  0  0  0  0  0  0  0  0  0
   -3.8890    0.5248   -0.2611 H   0  0  0  0  0  0  0  0  0  0  0  0
   -2.8718    2.0508   -0.4428 H   0  0  0  0  0  0  0  0  0  0  0  0
   -0.1427    0.7293    1.4768 H   0  0  0  0  0  0  0  0  0  0  0  0
   -0.7750    2.0396    0.4260 H   0  0  0  0  0  0  0  0  0  0  0  0
   -2.8371   -0.9124    2.2415 H   0  0  0  0  0  0  0  0  0  0  0  0
   -3.0468   -1.2262    0.5100 H   0  0  0  0  0  0  0  0  0  0  0  0
   -1.3136   -2.5795    1.3056 H   0  0  0  0  0  0  0  0  0  0  0  0
   -0.4309   -1.2016    2.0699 H   0  0  0  0  0  0  0  0  0  0  0  0
   -0.7828   -2.0148   -0.8310 H   0  0  0  0  0  0  0  0  0  0  0  0
  1  2  2  0
  2  3  1  0
  3  4  2  0
  4  5  1  0
  5  6  2  0
  1  6  1  0
  4  7  1  0
  8  7  1  6
  8  9  1  0
  9 10  1  0
 10 11  1  0
 11 12  1  0
  8 12  1  0
 11 13  1  0
 13 14  1  0
 14 15  1  0
  8 15  1  0
 15 16  1  0
  3 16  1  0
  1 17  1  0
  2 18  1  0
  6 19  1  0
  7 20  1  0
  7 21  1  0
  9 22  1  0
  9 23  1  0
 10 24  1  0
 10 25  1  0
 12 26  1  0
 12 27  1  0
 13 28  1  0
 13 29  1  0
 14 30  1  0
 14 31  1  0
 15 32  1  6
M  END

