347829122
     RDKit          3D

 58 66  0  0  0  0  0  0  0  0999 V2000
   -4.3330   -4.4847   -0.7029 C   0  0  0  0  0  0  0  0  0  0  0  0
   -3.2331   -5.2820   -0.9503 C   0  0  0  0  0  0  0  0  0  0  0  0
   -5.6484    3.1061    1.7073 C   0  0  0  0  0  0  0  0  0  0  0  0
   -4.8330    4.0304    2.3243 C   0  0  0  0  0  0  0  0  0  0  0  0
    4.9165   -4.4764   -1.3533 C   0  0  0  0  0  0  0  0  0  0  0  0
    5.7812   -3.5546   -0.8029 C   0  0  0  0  0  0  0  0  0  0  0  0
    3.0236    5.3904   -0.2746 C   0  0  0  0  0  0  0  0  0  0  0  0
    4.1145    4.5978   -0.5641 C   0  0  0  0  0  0  0  0  0  0  0  0
   -4.1402   -3.1323   -0.6065 C   0  0  0  0  0  0  0  0  0  0  0  0
   -1.9736   -4.7223   -1.0958 C   0  0  0  0  0  0  0  0  0  0  0  0
   -5.0624    2.0916    0.9957 C   0  0  0  0  0  0  0  0  0  0  0  0
   -3.4826    3.9262    2.2214 C   0  0  0  0  0  0  0  0  0  0  0  0
    3.5813   -4.1554   -1.4381 C   0  0  0  0  0  0  0  0  0  0  0  0
    5.3305   -2.3357   -0.3444 C   0  0  0  0  0  0  0  0  0  0  0  0
    1.9309    4.7952    0.2999 C   0  0  0  0  0  0  0  0  0  0  0  0
    4.1070    3.2475   -0.2845 C   0  0  0  0  0  0  0  0  0  0  0  0
   -2.8932   -2.5871   -0.7513 C   0  0  0  0  0  0  0  0  0  0  0  0
   -1.8154   -3.3634   -0.9933 C   0  0  0  0  0  0  0  0  0  0  0  0
   -3.6917    1.9935    0.8964 C   0  0  0  0  0  0  0  0  0  0  0  0
   -2.8634    2.9015    1.5019 C   0  0  0  0  0  0  0  0  0  0  0  0
    3.1144   -2.9280   -0.9786 C   0  0  0  0  0  0  0  0  0  0  0  0
    3.9721   -1.9980   -0.4259 C   0  0  0  0  0  0  0  0  0  0  0  0
    1.8794    3.4234    0.6021 C   0  0  0  0  0  0  0  0  0  0  0  0
    2.9818    2.6564    0.3026 C   0  0  0  0  0  0  0  0  0  0  0  0
   -2.3966   -1.1856   -0.7012 C   0  0  0  0  0  0  0  0  0  0  0  0
   -0.6399   -2.4673   -1.0972 C   0  0  0  0  0  0  0  0  0  0  0  0
   -2.7762    1.0305    0.2133 C   0  0  0  0  0  0  0  0  0  0  0  0
    1.7673   -2.3060   -0.9333 C   0  0  0  0  0  0  0  0  0  0  0  0
   -1.4977    2.5481    1.2276 C   0  0  0  0  0  0  0  0  0  0  0  0
    3.1826   -0.8600   -0.0602 C   0  0  0  0  0  0  0  0  0  0  0  0
    0.9319    2.5726    1.1852 C   0  0  0  0  0  0  0  0  0  0  0  0
    2.6441    1.3584    0.7248 C   0  0  0  0  0  0  0  0  0  0  0  0
   -1.0715   -1.2199   -0.9134 N   0  0  0  0  0  0  0  0  0  0  0  0
   -1.5314    1.4303    0.4598 N   0  0  0  0  0  0  0  0  0  0  0  0
    1.8840   -1.0963   -0.3833 N   0  0  0  0  0  0  0  0  0  0  0  0
    1.4165    1.3210    1.2571 N   0  0  0  0  0  0  0  0  0  0  0  0
   -3.0421   -0.0298   -0.5176 N   0  0  0  0  0  0  0  0  0  0  0  0
    0.6073   -2.8024   -1.3453 N   0  0  0  0  0  0  0  0  0  0  0  0
   -0.2934    3.0355    1.5430 N   0  0  0  0  0  0  0  0  0  0  0  0
    3.5087    0.3108    0.5197 N   0  0  0  0  0  0  0  0  0  0  0  0
   -5.3139   -4.9283   -0.5903 H   0  0  0  0  0  0  0  0  0  0  0  0
   -3.4017   -6.3426   -1.0232 H   0  0  0  0  0  0  0  0  0  0  0  0
   -6.7332    3.2000    1.7970 H   0  0  0  0  0  0  0  0  0  0  0  0
   -5.2984    4.8398    2.8920 H   0  0  0  0  0  0  0  0  0  0  0  0
    5.2564   -5.4264   -1.7125 H   0  0  0  0  0  0  0  0  0  0  0  0
    6.8581   -3.7627   -0.7122 H   0  0  0  0  0  0  0  0  0  0  0  0
    3.0482    6.4350   -0.4986 H   0  0  0  0  0  0  0  0  0  0  0  0
    4.9793    5.0495   -1.0147 H   0  0  0  0  0  0  0  0  0  0  0  0
   -5.0096   -2.5006   -0.4107 H   0  0  0  0  0  0  0  0  0  0  0  0
   -1.1434   -5.3961   -1.2893 H   0  0  0  0  0  0  0  0  0  0  0  0
   -5.6663    1.3621    0.5078 H   0  0  0  0  0  0  0  0  0  0  0  0
   -2.8225    4.6341    2.6938 H   0  0  0  0  0  0  0  0  0  0  0  0
    2.8350   -4.8296   -1.8599 H   0  0  0  0  0  0  0  0  0  0  0  0
    5.9987   -1.6151    0.0847 H   0  0  0  0  0  0  0  0  0  0  0  0
    1.0705    5.4047    0.5317 H   0  0  0  0  0  0  0  0  0  0  0  0
    4.9398    2.6034   -0.4973 H   0  0  0  0  0  0  0  0  0  0  0  0
    0.9077    0.4584    1.7170 H   0  0  0  0  0  0  0  0  0  0  0  0
   -3.9615    0.0343   -1.0794 H   0  0  0  0  0  0  0  0  0  0  0  0
  1  2  2  0
  3  4  2  0
  5  6  2  0
  7  8  1  0
  1  9  1  0
  2 10  1  0
  3 11  1  0
  4 12  1  0
  5 13  1  0
  6 14  1  0
  7 15  2  0
  8 16  2  0
  9 17  2  0
 10 18  2  0
 17 18  1  0
 11 19  2  0
 12 20  2  0
 19 20  1  0
 13 21  2  0
 14 22  2  0
 21 22  1  0
 15 23  1  0
 16 24  1  0
 23 24  1  0
 17 25  1  0
 18 26  1  0
 19 27  1  0
 21 28  1  0
 20 29  1  0
 22 30  1  0
 23 31  2  0
 24 32  2  0
 25 33  2  0
 26 33  1  0
 27 34  2  0
 29 34  1  0
 28 35  2  0
 30 35  1  0
 31 36  1  0
 32 36  1  0
 25 37  1  0
 27 37  1  0
 26 38  2  0
 28 38  1  0
 29 39  2  0
 31 39  1  0
 30 40  2  0
 32 40  1  0
  1 41  1  0
  2 42  1  0
  3 43  1  0
  4 44  1  0
  5 45  1  0
  6 46  1  0
  7 47  1  0
  8 48  1  0
  9 49  1  0
 10 50  1  0
 11 51  1  0
 12 52  1  0
 13 53  1  0
 14 54  1  0
 15 55  1  0
 16 56  1  0
 36 57  1  0
 37 58  1  0
M  END

