347828020
     RDKit          3D

 41 42  0  0  0  0  0  0  0  0999 V2000
    0.1277    0.3288    3.5481 C   0  0  0  0  0  0  0  0  0  0  0  0
   -2.0127   -2.3362   -1.2756 C   0  0  0  0  0  0  0  0  0  0  0  0
    0.2628    1.3480    2.4274 C   0  0  0  0  0  0  0  0  0  0  0  0
   -1.5225   -0.9565   -1.7553 C   0  0  0  0  0  0  0  0  0  0  0  0
   -3.4047    1.2958   -0.9352 C   0  0  0  0  0  0  0  0  0  0  0  0
   -4.5415    0.4762   -0.3519 C   0  0  0  0  0  0  0  0  0  0  0  0
    4.6184   -0.0561   -0.9933 C   0  0  0  0  0  0  0  0  0  0  0  0
    3.0411   -0.3305    0.7740 C   0  0  0  0  0  0  0  0  0  0  0  0
    2.3747   -0.6179   -1.4498 C   0  0  0  0  0  0  0  0  0  0  0  0
    5.3849    0.2571    1.2652 C   0  0  0  0  0  0  0  0  0  0  0  0
    3.9328   -0.3547   -3.3469 C   0  0  0  0  0  0  0  0  0  0  0  0
    4.3197   -0.0497    0.3518 C   0  0  0  0  0  0  0  0  0  0  0  0
    3.6506   -0.3412   -1.9278 C   0  0  0  0  0  0  0  0  0  0  0  0
    2.0210   -0.6256   -0.1286 C   0  0  0  0  0  0  0  0  0  0  0  0
   -0.5444    0.9435    1.2458 C   0  0  0  0  0  0  0  0  0  0  0  0
   -1.3621   -0.0397   -0.6165 C   0  0  0  0  0  0  0  0  0  0  0  0
   -0.3154   -0.0507    0.3134 C   0  0  0  0  0  0  0  0  0  0  0  0
    6.2459    0.5119    2.0195 N   0  0  0  0  0  0  0  0  0  0  0  0
    4.1734   -0.3530   -4.4889 N   0  0  0  0  0  0  0  0  0  0  0  0
   -1.7211    1.5276    0.8533 N   0  0  0  0  0  0  0  0  0  0  0  0
   -2.1776    0.9403   -0.2310 N   0  0  0  0  0  0  0  0  0  0  0  0
   -4.6058    0.8173    1.0122 O   0  0  0  0  0  0  0  0  0  0  0  0
    0.7664   -0.8964    0.3267 O   0  0  0  0  0  0  0  0  0  0  0  0
   -0.8492    0.4209    4.0606 H   0  0  0  0  0  0  0  0  0  0  0  0
    0.1634   -0.6899    3.1119 H   0  0  0  0  0  0  0  0  0  0  0  0
    0.9796    0.4062    4.2544 H   0  0  0  0  0  0  0  0  0  0  0  0
   -2.6832   -2.7882   -2.0065 H   0  0  0  0  0  0  0  0  0  0  0  0
   -2.5547   -2.2320   -0.3083 H   0  0  0  0  0  0  0  0  0  0  0  0
   -1.1557   -3.0033   -1.0728 H   0  0  0  0  0  0  0  0  0  0  0  0
   -0.1396    2.3447    2.7763 H   0  0  0  0  0  0  0  0  0  0  0  0
    1.3170    1.4348    2.1351 H   0  0  0  0  0  0  0  0  0  0  0  0
   -2.2740   -0.5749   -2.4866 H   0  0  0  0  0  0  0  0  0  0  0  0
   -0.6149   -1.1509   -2.3064 H   0  0  0  0  0  0  0  0  0  0  0  0
   -3.3321    1.0970   -2.0176 H   0  0  0  0  0  0  0  0  0  0  0  0
   -3.6601    2.3676   -0.8167 H   0  0  0  0  0  0  0  0  0  0  0  0
   -4.2944   -0.5822   -0.4745 H   0  0  0  0  0  0  0  0  0  0  0  0
   -5.4615    0.7638   -0.8960 H   0  0  0  0  0  0  0  0  0  0  0  0
    5.6178    0.1609   -1.3794 H   0  0  0  0  0  0  0  0  0  0  0  0
    2.8547   -0.3224    1.8611 H   0  0  0  0  0  0  0  0  0  0  0  0
    1.6360   -0.8416   -2.2113 H   0  0  0  0  0  0  0  0  0  0  0  0
   -4.2607    1.7511    1.1403 H   0  0  0  0  0  0  0  0  0  0  0  0
  1  3  1  0
  2  4  1  0
  5  6  1  0
  7 12  2  0
  8 12  1  0
 10 12  1  0
  7 13  1  0
  9 13  2  0
 11 13  1  0
  8 14  2  0
  9 14  1  0
  3 15  1  0
  4 16  1  0
 15 17  1  0
 16 17  2  0
 10 18  3  0
 11 19  3  0
 15 20  2  0
  5 21  1  0
 16 21  1  0
 20 21  1  0
  6 22  1  0
 14 23  1  0
 17 23  1  0
  1 24  1  0
  1 25  1  0
  1 26  1  0
  2 27  1  0
  2 28  1  0
  2 29  1  0
  3 30  1  0
  3 31  1  0
  4 32  1  0
  4 33  1  0
  5 34  1  0
  5 35  1  0
  6 36  1  0
  6 37  1  0
  7 38  1  0
  8 39  1  0
  9 40  1  0
 22 41  1  0
M  END

