347829026
     RDKit          3D

 50 53  0  0  0  0  0  0  0  0999 V2000
   -2.0055    4.6466    0.3831 C   0  0  0  0  0  0  0  0  0  0  0  0
   -1.2673    3.3756    0.6311 C   0  0  0  0  0  0  0  0  0  0  0  0
   -0.0409    3.4568    1.2458 C   0  0  0  0  0  0  0  0  0  0  0  0
    0.6100    2.3196    1.4737 N   0  0  0  0  0  0  0  0  0  0  0  0
    0.1243    1.0794    1.1274 C   0  0  0  0  0  0  0  0  0  0  0  0
   -1.0500    0.9636    0.5152 C   0  0  0  0  0  0  0  0  0  0  0  0
   -1.7689    2.1484    0.2703 C   0  0  0  0  0  0  0  0  0  0  0  0
   -2.9385    1.8522   -0.2789 N   0  0  0  0  0  0  0  0  0  0  0  0
   -3.0275    0.5151   -0.4287 C   0  0  0  0  0  0  0  0  0  0  0  0
   -1.8366   -0.0523    0.0523 C   0  0  0  0  0  0  0  0  0  0  0  0
   -1.6159   -1.4187    0.0035 C   0  0  0  0  0  0  0  0  0  0  0  0
   -0.4274   -2.0255    0.2900 C   0  0  0  0  0  0  0  0  0  0  0  0
   -0.2374   -3.3867    0.1022 C   0  0  0  0  0  0  0  0  0  0  0  0
   -1.2633   -4.1551   -0.3912 C   0  0  0  0  0  0  0  0  0  0  0  0
   -2.4642   -3.5592   -0.6941 C   0  0  0  0  0  0  0  0  0  0  0  0
   -2.6627   -2.1920   -0.5076 C   0  0  0  0  0  0  0  0  0  0  0  0
   -3.8532   -1.6440   -0.9659 C   0  0  0  0  0  0  0  0  0  0  0  0
   -4.0091   -0.2932   -0.9207 C   0  0  0  0  0  0  0  0  0  0  0  0
   -1.1016   -5.5138   -0.5854 O   0  0  0  0  0  0  0  0  0  0  0  0
    0.7693    0.0757    1.9020 N   0  0  0  0  0  0  0  0  0  0  0  0
    2.1002    0.1543    2.4116 C   0  0  0  0  0  0  0  0  0  0  0  0
    3.1995    0.5666    1.5216 C   0  0  0  0  0  0  0  0  0  0  0  0
    3.5190   -0.2348    0.3286 C   0  0  0  0  0  0  0  0  0  0  0  0
    2.5308   -0.3548   -0.6901 N   0  0  0  0  0  0  0  0  0  0  0  0
    3.0871   -1.2580   -1.7044 C   0  0  0  0  0  0  0  0  0  0  0  0
    2.3271    0.9056   -1.4049 C   0  0  0  0  0  0  0  0  0  0  0  0
   -1.2718    5.4859    0.3214 H   0  0  0  0  0  0  0  0  0  0  0  0
   -2.5557    4.6448   -0.5632 H   0  0  0  0  0  0  0  0  0  0  0  0
   -2.6285    4.8531    1.2796 H   0  0  0  0  0  0  0  0  0  0  0  0
    0.3497    4.4319    1.5188 H   0  0  0  0  0  0  0  0  0  0  0  0
   -3.6812    2.5457   -0.5551 H   0  0  0  0  0  0  0  0  0  0  0  0
    0.4337   -1.4574    0.5369 H   0  0  0  0  0  0  0  0  0  0  0  0
    0.7277   -3.7961    0.3564 H   0  0  0  0  0  0  0  0  0  0  0  0
   -3.3029   -4.1567   -1.0932 H   0  0  0  0  0  0  0  0  0  0  0  0
   -4.5893   -2.3229   -1.3300 H   0  0  0  0  0  0  0  0  0  0  0  0
   -4.9319    0.1608   -1.2817 H   0  0  0  0  0  0  0  0  0  0  0  0
   -1.8799   -6.0551   -0.9465 H   0  0  0  0  0  0  0  0  0  0  0  0
    0.1586   -0.7082    2.2691 H   0  0  0  0  0  0  0  0  0  0  0  0
    2.3735   -0.8567    2.8362 H   0  0  0  0  0  0  0  0  0  0  0  0
    2.0839    0.7893    3.3598 H   0  0  0  0  0  0  0  0  0  0  0  0
    4.1399    0.5730    2.1701 H   0  0  0  0  0  0  0  0  0  0  0  0
    3.1312    1.6824    1.2585 H   0  0  0  0  0  0  0  0  0  0  0  0
    4.4254    0.2225   -0.1456 H   0  0  0  0  0  0  0  0  0  0  0  0
    3.8813   -1.2418    0.6895 H   0  0  0  0  0  0  0  0  0  0  0  0
    4.0702   -0.8874   -2.0577 H   0  0  0  0  0  0  0  0  0  0  0  0
    3.2673   -2.2796   -1.2691 H   0  0  0  0  0  0  0  0  0  0  0  0
    2.3302   -1.3502   -2.4995 H   0  0  0  0  0  0  0  0  0  0  0  0
    2.7045    1.7766   -0.8124 H   0  0  0  0  0  0  0  0  0  0  0  0
    2.8215    0.9145   -2.3943 H   0  0  0  0  0  0  0  0  0  0  0  0
    1.2451    1.0601   -1.5442 H   0  0  0  0  0  0  0  0  0  0  0  0
  1  2  1  0
  2  3  2  0
  3  4  1  0
  4  5  2  0
  5  6  1  0
  6  7  2  0
  2  7  1  0
  7  8  1  0
  8  9  1  0
  9 10  2  0
  6 10  1  0
 10 11  1  0
 11 12  2  0
 12 13  1  0
 13 14  2  0
 14 15  1  0
 15 16  2  0
 11 16  1  0
 16 17  1  0
 17 18  2  0
  9 18  1  0
 14 19  1  0
  5 20  1  0
 20 21  1  0
 21 22  1  0
 22 23  1  0
 23 24  1  0
 24 25  1  0
 24 26  1  0
  1 27  1  0
  1 28  1  0
  1 29  1  0
  3 30  1  0
  8 31  1  0
 12 32  1  0
 13 33  1  0
 15 34  1  0
 17 35  1  0
 18 36  1  0
 19 37  1  0
 20 38  1  0
 21 39  1  0
 21 40  1  0
 22 41  1  0
 22 42  1  0
 23 43  1  0
 23 44  1  0
 25 45  1  0
 25 46  1  0
 25 47  1  0
 26 48  1  0
 26 49  1  0
 26 50  1  0
M  END

