347828620
     RDKit          3D

 55 60  0  0  0  0  0  0  0  0999 V2000
   -2.5354   -3.4868   -0.5062 C   0  0  0  0  0  0  0  0  0  0  0  0
   -3.9237   -3.2466   -0.3163 N   0  0  0  0  0  0  0  0  0  0  0  0
   -1.8066   -2.3662    0.0399 C   0  0  0  0  0  0  0  0  0  0  0  0
   -3.9786   -1.9882    0.3366 C   0  0  0  0  0  0  0  0  0  0  0  0
   -2.6427   -1.4644    0.5441 C   0  0  0  0  0  0  0  0  0  0  0  0
   -2.0699   -4.5439   -1.0795 O   0  0  0  0  0  0  0  0  0  0  0  0
   -5.0406   -1.3816    0.7022 O   0  0  0  0  0  0  0  0  0  0  0  0
   -2.2637   -0.1942    1.2100 C   0  0  0  0  0  0  0  0  0  0  0  0
   -2.8052    1.0509    1.0129 C   0  0  0  0  0  0  0  0  0  0  0  0
   -1.3018   -0.0299    2.1864 C   0  0  0  0  0  0  0  0  0  0  0  0
   -2.1889    1.9825    1.8580 C   0  0  0  0  0  0  0  0  0  0  0  0
   -1.2814    1.2634    2.5486 N   0  0  0  0  0  0  0  0  0  0  0  0
   -0.3620   -2.1468    0.0251 C   0  0  0  0  0  0  0  0  0  0  0  0
    0.1561   -1.0427   -0.5968 N   0  0  0  0  0  0  0  0  0  0  0  0
    0.4526   -3.0640    0.6469 C   0  0  0  0  0  0  0  0  0  0  0  0
    1.4734   -0.8037   -0.6328 C   0  0  0  0  0  0  0  0  0  0  0  0
    1.8087   -2.8086    0.6030 C   0  0  0  0  0  0  0  0  0  0  0  0
    2.2655   -1.7003   -0.0283 N   0  0  0  0  0  0  0  0  0  0  0  0
   -3.7832    1.5611    0.1875 C   0  0  0  0  0  0  0  0  0  0  0  0
   -4.1418    2.8942    0.1845 C   0  0  0  0  0  0  0  0  0  0  0  0
   -2.5515    3.3185    1.8518 C   0  0  0  0  0  0  0  0  0  0  0  0
   -3.5331    3.7995    1.0168 C   0  0  0  0  0  0  0  0  0  0  0  0
   -0.0868   -4.1584    1.2875 C   0  0  0  0  0  0  0  0  0  0  0  0
    0.7949   -5.0373    1.9096 C   0  0  0  0  0  0  0  0  0  0  0  0
    2.6659   -3.6885    1.2233 C   0  0  0  0  0  0  0  0  0  0  0  0
    2.1604   -4.8003    1.8747 C   0  0  0  0  0  0  0  0  0  0  0  0
    2.0343    0.3463   -1.2778 N   0  0  0  0  0  0  0  0  0  0  0  0
    1.2167    1.3400   -1.9098 C   0  0  0  0  0  0  0  0  0  0  0  0
    3.4725    0.5537   -1.3175 C   0  0  0  0  0  0  0  0  0  0  0  0
    1.6664    2.7482   -1.6565 C   0  0  0  0  0  0  0  0  0  0  0  0
    3.8255    1.9578   -0.9099 C   0  0  0  0  0  0  0  0  0  0  0  0
    3.0883    2.9324   -1.6880 N   0  0  0  0  0  0  0  0  0  0  0  0
    3.4857    4.2345   -1.1923 C   0  0  0  0  0  0  0  0  0  0  0  0
   -4.7379   -3.8463   -0.5881 H   0  0  0  0  0  0  0  0  0  0  0  0
   -0.6698   -0.7787    2.6009 H   0  0  0  0  0  0  0  0  0  0  0  0
   -0.6631    1.7185    3.2691 H   0  0  0  0  0  0  0  0  0  0  0  0
   -4.2796    0.8829   -0.4924 H   0  0  0  0  0  0  0  0  0  0  0  0
   -4.9164    3.2320   -0.4857 H   0  0  0  0  0  0  0  0  0  0  0  0
   -2.0640    4.0198    2.5108 H   0  0  0  0  0  0  0  0  0  0  0  0
   -3.8339    4.8353    0.9934 H   0  0  0  0  0  0  0  0  0  0  0  0
   -1.1697   -4.3487    1.3470 H   0  0  0  0  0  0  0  0  0  0  0  0
    0.4370   -5.9084    2.4246 H   0  0  0  0  0  0  0  0  0  0  0  0
    3.7242   -3.4680    1.1733 H   0  0  0  0  0  0  0  0  0  0  0  0
    2.8890   -5.4523    2.3419 H   0  0  0  0  0  0  0  0  0  0  0  0
    0.1946    1.2549   -1.4345 H   0  0  0  0  0  0  0  0  0  0  0  0
    1.0677    1.1148   -2.9863 H   0  0  0  0  0  0  0  0  0  0  0  0
    4.0253   -0.1681   -0.7133 H   0  0  0  0  0  0  0  0  0  0  0  0
    3.7799    0.4144   -2.3786 H   0  0  0  0  0  0  0  0  0  0  0  0
    1.2481    3.3958   -2.4793 H   0  0  0  0  0  0  0  0  0  0  0  0
    1.2433    3.1545   -0.7107 H   0  0  0  0  0  0  0  0  0  0  0  0
    4.9025    2.1396   -1.1073 H   0  0  0  0  0  0  0  0  0  0  0  0
    3.6927    2.1040    0.1884 H   0  0  0  0  0  0  0  0  0  0  0  0
    3.0390    4.4250   -0.1724 H   0  0  0  0  0  0  0  0  0  0  0  0
    4.5807    4.1885   -1.0135 H   0  0  0  0  0  0  0  0  0  0  0  0
    3.2401    5.0600   -1.8788 H   0  0  0  0  0  0  0  0  0  0  0  0
  1  2  1  0
  1  3  1  0
  2  4  1  0
  3  5  2  0
  4  5  1  0
  1  6  2  0
  4  7  2  0
  8  9  1  0
  8 10  2  0
 10 12  1  0
 11 12  1  0
  5  8  1  0
 13 14  2  0
 13 15  1  0
 14 16  1  0
 16 18  2  0
 17 18  1  0
  3 13  1  0
  9 19  2  0
  9 11  1  0
 19 20  1  0
 11 21  2  0
 20 22  2  0
 21 22  1  0
 15 23  2  0
 15 17  1  0
 23 24  1  0
 17 25  2  0
 24 26  2  0
 25 26  1  0
 27 28  1  0
 27 29  1  0
 28 30  1  0
 29 31  1  0
 30 32  1  0
 31 32  1  0
 16 27  1  0
 32 33  1  0
  2 34  1  0
 10 35  1  0
 12 36  1  0
 19 37  1  0
 20 38  1  0
 21 39  1  0
 22 40  1  0
 23 41  1  0
 24 42  1  0
 25 43  1  0
 26 44  1  0
 28 45  1  0
 28 46  1  0
 29 47  1  0
 29 48  1  0
 30 49  1  0
 30 50  1  0
 31 51  1  0
 31 52  1  0
 33 53  1  0
 33 54  1  0
 33 55  1  0
M  END

