99444250
     RDKit          3D

 54 56  0  0  1  0  0  0  0  0999 V2000
   -0.9968    1.1141    0.1777 O   0  0  0  0  0  0  0  0  0  0  0  0
   -1.2714   -0.0048   -0.2805 C   0  0  0  0  0  0  0  0  0  0  0  0
   -2.5722   -0.4658   -0.7563 C   0  0  0  0  0  0  0  0  0  0  0  0
   -3.4460   -1.0862    0.2880 C   0  0  2  0  0  0  0  0  0  0  0  0
   -4.6621   -1.5198   -0.4473 N   0  0  0  0  0  0  0  0  0  0  0  0
   -3.8901   -0.1598    1.3794 C   0  0  0  0  0  0  0  0  0  0  0  0
   -4.7060    0.9394    0.8496 C   0  0  0  0  0  0  0  0  0  0  0  0
   -6.0401    0.7018    0.5386 C   0  0  0  0  0  0  0  0  0  0  0  0
   -6.5873   -0.5005    0.7592 F   0  0  0  0  0  0  0  0  0  0  0  0
   -6.8053    1.7505    0.0246 C   0  0  0  0  0  0  0  0  0  0  0  0
   -6.2830    3.0019   -0.1805 C   0  0  0  0  0  0  0  0  0  0  0  0
   -4.9587    3.2184    0.1355 C   0  0  0  0  0  0  0  0  0  0  0  0
   -4.1745    2.1834    0.6507 C   0  0  0  0  0  0  0  0  0  0  0  0
   -0.1934   -0.9645   -0.3565 N   0  0  0  0  0  0  0  0  0  0  0  0
    1.1878   -0.7410    0.0554 C   0  0  1  0  0  0  0  0  0  0  0  0
    1.4276   -2.0045    0.8685 C   0  0  0  0  0  0  0  0  0  0  0  0
    0.8933   -3.0492   -0.1155 C   0  0  0  0  0  0  0  0  0  0  0  0
   -0.2236   -2.3297   -0.8414 C   0  0  0  0  0  0  0  0  0  0  0  0
    2.0202   -0.7351   -1.2061 C   0  0  0  0  0  0  0  0  0  0  0  0
    3.4216   -0.5230   -0.9734 N   0  0  0  0  0  0  0  0  0  0  0  0
    3.8780    0.6535   -0.3631 C   0  0  0  0  0  0  0  0  0  0  0  0
    3.0383    1.5328   -0.0186 O   0  0  0  0  0  0  0  0  0  0  0  0
    5.3090    0.8998   -0.1092 C   0  0  0  0  0  0  0  0  0  0  0  0
    5.7150    2.0859    0.4613 C   0  0  0  0  0  0  0  0  0  0  0  0
    7.0463    2.3342    0.7069 C   0  0  0  0  0  0  0  0  0  0  0  0
    8.0300    1.4047    0.3916 C   0  0  0  0  0  0  0  0  0  0  0  0
    7.6167    0.2155   -0.1809 C   0  0  0  0  0  0  0  0  0  0  0  0
    6.2698   -0.0296   -0.4266 C   0  0  0  0  0  0  0  0  0  0  0  0
   -2.4721   -1.2139   -1.5820 H   0  0  0  0  0  0  0  0  0  0  0  0
   -3.1485    0.3800   -1.1977 H   0  0  0  0  0  0  0  0  0  0  0  0
   -3.0023   -2.0010    0.7105 H   0  0  0  0  0  0  0  0  0  0  0  0
   -4.5116   -2.4998   -0.7702 H   0  0  0  0  0  0  0  0  0  0  0  0
   -4.8248   -0.8699   -1.2466 H   0  0  0  0  0  0  0  0  0  0  0  0
   -4.5034   -0.7623    2.0955 H   0  0  0  0  0  0  0  0  0  0  0  0
   -3.0193    0.2213    1.9759 H   0  0  0  0  0  0  0  0  0  0  0  0
   -7.8354    1.5220   -0.2036 H   0  0  0  0  0  0  0  0  0  0  0  0
   -6.9052    3.8073   -0.5854 H   0  0  0  0  0  0  0  0  0  0  0  0
   -4.5010    4.1915   -0.0084 H   0  0  0  0  0  0  0  0  0  0  0  0
   -3.1601    2.3841    0.9009 H   0  0  0  0  0  0  0  0  0  0  0  0
    1.2987    0.1604    0.6650 H   0  0  0  0  0  0  0  0  0  0  0  0
    0.7570   -1.9684    1.7335 H   0  0  0  0  0  0  0  0  0  0  0  0
    2.4723   -2.1680    1.1241 H   0  0  0  0  0  0  0  0  0  0  0  0
    0.5185   -3.9324    0.4388 H   0  0  0  0  0  0  0  0  0  0  0  0
    1.6843   -3.4149   -0.7921 H   0  0  0  0  0  0  0  0  0  0  0  0
   -0.0681   -2.3393   -1.9507 H   0  0  0  0  0  0  0  0  0  0  0  0
   -1.1716   -2.8443   -0.5793 H   0  0  0  0  0  0  0  0  0  0  0  0
    1.6706    0.1379   -1.8253 H   0  0  0  0  0  0  0  0  0  0  0  0
    1.8273   -1.6227   -1.8081 H   0  0  0  0  0  0  0  0  0  0  0  0
    4.0728   -1.2743   -1.2760 H   0  0  0  0  0  0  0  0  0  0  0  0
    4.9591    2.8212    0.7130 H   0  0  0  0  0  0  0  0  0  0  0  0
    7.3558    3.2633    1.1527 H   0  0  0  0  0  0  0  0  0  0  0  0
    9.0788    1.6152    0.5919 H   0  0  0  0  0  0  0  0  0  0  0  0
    8.3526   -0.5414   -0.4441 H   0  0  0  0  0  0  0  0  0  0  0  0
    6.0323   -0.9736   -0.8718 H   0  0  0  0  0  0  0  0  0  0  0  0
  1  2  2  0
  2  3  1  0
  2 14  1  0
  3  4  1  0
  4  5  1  0
  4  6  1  0
  6  7  1  0
  7  8  2  0
  7 13  1  0
  8  9  1  0
  8 10  1  0
 10 11  2  0
 11 12  1  0
 12 13  2  0
 14 15  1  0
 14 18  1  0
 15 16  1  0
 15 19  1  0
 16 17  1  0
 17 18  1  0
 19 20  1  0
 20 21  1  0
 21 22  2  0
 21 23  1  0
 23 24  2  0
 23 28  1  0
 24 25  1  0
 25 26  2  0
 26 27  1  0
 27 28  2  0
  3 29  1  0
  3 30  1  0
  4 31  1  1
  5 32  1  0
  5 33  1  0
  6 34  1  0
  6 35  1  0
 10 36  1  0
 11 37  1  0
 12 38  1  0
 13 39  1  0
 15 40  1  1
 16 41  1  0
 16 42  1  0
 17 43  1  0
 17 44  1  0
 18 45  1  0
 18 46  1  0
 19 47  1  0
 19 48  1  0
 20 49  1  0
 24 50  1  0
 25 51  1  0
 26 52  1  0
 27 53  1  0
 28 54  1  0
M  END

