99444549
     RDKit          3D

 55 56  0  0  0  0  0  0  0  0999 V2000
   -3.2738   -0.6931    1.2503 C   0  0  0  0  0  0  0  0  0  0  0  0
   -2.4424   -1.0442    0.1802 C   0  0  0  0  0  0  0  0  0  0  0  0
   -4.4054    0.0643    1.0730 C   0  0  0  0  0  0  0  0  0  0  0  0
   -2.8681   -1.1767    2.5793 C   0  0  0  0  0  0  0  0  0  0  0  0
   -2.8032   -0.6001   -1.0620 C   0  0  0  0  0  0  0  0  0  0  0  0
   -1.3130   -1.8076    0.4010 O   0  0  0  0  0  0  0  0  0  0  0  0
   -4.7252    0.4918   -0.2270 C   0  0  0  0  0  0  0  0  0  0  0  0
   -5.2578    0.4379    2.0975 O   0  0  0  0  0  0  0  0  0  0  0  0
   -1.7197   -0.2689    3.0411 C   0  0  0  0  0  0  0  0  0  0  0  0
   -3.9225    0.1566   -1.2837 C   0  0  0  0  0  0  0  0  0  0  0  0
   -0.5147   -2.1293   -0.7224 C   0  0  0  0  0  0  0  0  0  0  0  0
   -5.9227    1.2923   -0.4103 C   0  0  0  0  0  0  0  0  0  0  0  0
   -2.1907    1.1642    3.1160 C   0  0  0  0  0  0  0  0  0  0  0  0
    0.6918   -2.9714   -0.3507 C   0  0  0  0  0  0  0  0  0  0  0  0
   -6.2609    1.7438   -1.7821 C   0  0  0  0  0  0  0  0  0  0  0  0
   -6.6628    1.6064    0.5349 O   0  0  0  0  0  0  0  0  0  0  0  0
    1.4396   -3.2365   -1.6294 C   0  0  0  0  0  0  0  0  0  0  0  0
    1.8874   -2.1132   -2.2807 O   0  0  0  0  0  0  0  0  0  0  0  0
    2.7972   -1.1865   -1.9058 C   0  0  0  0  0  0  0  0  0  0  0  0
    3.5260   -1.1924   -0.7454 C   0  0  0  0  0  0  0  0  0  0  0  0
    3.0385   -0.1047   -2.7591 C   0  0  0  0  0  0  0  0  0  0  0  0
    4.4475   -0.1730   -0.4475 C   0  0  0  0  0  0  0  0  0  0  0  0
    3.9386    0.8957   -2.4746 C   0  0  0  0  0  0  0  0  0  0  0  0
    4.6601    0.8748   -1.3063 C   0  0  0  0  0  0  0  0  0  0  0  0
    5.5606    1.8970   -1.0451 O   0  0  0  0  0  0  0  0  0  0  0  0
    6.2972    1.8595    0.1634 C   0  0  0  0  0  0  0  0  0  0  0  0
    7.2074    3.0215    0.2814 C   0  0  0  0  0  0  0  0  0  0  0  0
    7.9968    3.1162    1.4187 O   0  0  0  0  0  0  0  0  0  0  0  0
    7.3115    3.9285   -0.5831 O   0  0  0  0  0  0  0  0  0  0  0  0
   -2.4179   -2.1993    2.5377 H   0  0  0  0  0  0  0  0  0  0  0  0
   -3.6413   -1.1382    3.3544 H   0  0  0  0  0  0  0  0  0  0  0  0
   -2.1530   -0.8735   -1.9067 H   0  0  0  0  0  0  0  0  0  0  0  0
   -5.0591    0.1568    3.0332 H   0  0  0  0  0  0  0  0  0  0  0  0
   -1.3662   -0.5454    4.0552 H   0  0  0  0  0  0  0  0  0  0  0  0
   -0.8543   -0.3337    2.3611 H   0  0  0  0  0  0  0  0  0  0  0  0
   -4.1667    0.4830   -2.2735 H   0  0  0  0  0  0  0  0  0  0  0  0
   -1.0792   -2.6849   -1.4985 H   0  0  0  0  0  0  0  0  0  0  0  0
   -0.1026   -1.1916   -1.1981 H   0  0  0  0  0  0  0  0  0  0  0  0
   -2.7241    1.4914    2.1905 H   0  0  0  0  0  0  0  0  0  0  0  0
   -1.2844    1.8196    3.1751 H   0  0  0  0  0  0  0  0  0  0  0  0
   -2.8448    1.3394    3.9850 H   0  0  0  0  0  0  0  0  0  0  0  0
    1.2480   -2.4289    0.3853 H   0  0  0  0  0  0  0  0  0  0  0  0
    0.3244   -3.9274    0.0834 H   0  0  0  0  0  0  0  0  0  0  0  0
   -5.6204    2.5769   -2.1357 H   0  0  0  0  0  0  0  0  0  0  0  0
   -7.3079    2.1262   -1.8468 H   0  0  0  0  0  0  0  0  0  0  0  0
   -6.1624    0.8569   -2.4450 H   0  0  0  0  0  0  0  0  0  0  0  0
    0.7790   -3.7979   -2.3623 H   0  0  0  0  0  0  0  0  0  0  0  0
    2.2757   -3.9628   -1.4063 H   0  0  0  0  0  0  0  0  0  0  0  0
    3.4050   -2.0096   -0.0554 H   0  0  0  0  0  0  0  0  0  0  0  0
    2.4631   -0.0988   -3.6786 H   0  0  0  0  0  0  0  0  0  0  0  0
    4.9938   -0.2221    0.4753 H   0  0  0  0  0  0  0  0  0  0  0  0
    4.0709    1.7106   -3.1952 H   0  0  0  0  0  0  0  0  0  0  0  0
    5.5916    1.8655    1.0287 H   0  0  0  0  0  0  0  0  0  0  0  0
    6.9430    0.9333    0.1654 H   0  0  0  0  0  0  0  0  0  0  0  0
    8.1721    2.3370    2.0503 H   0  0  0  0  0  0  0  0  0  0  0  0
  1  4  1  0
  1  2  2  0
  2  6  1  0
  1  3  1  0
  3  8  1  0
  4  9  1  0
  2  5  1  0
  3  7  2  0
  9 13  1  0
  5 10  2  0
  7 10  1  0
  6 11  1  0
 11 14  1  0
  7 12  1  0
 12 16  2  0
 14 17  1  0
 12 15  1  0
 17 18  1  0
 18 19  1  0
 19 21  1  0
 19 20  2  0
 20 22  1  0
 22 24  2  0
 21 23  2  0
 23 24  1  0
 24 25  1  0
 25 26  1  0
 26 27  1  0
 27 29  2  0
 27 28  1  0
  4 30  1  0
  4 31  1  0
  5 32  1  0
  8 33  1  0
  9 34  1  0
  9 35  1  0
 10 36  1  0
 11 37  1  0
 11 38  1  0
 13 39  1  0
 13 40  1  0
 13 41  1  0
 14 42  1  0
 14 43  1  0
 15 44  1  0
 15 45  1  0
 15 46  1  0
 17 47  1  0
 17 48  1  0
 20 49  1  0
 21 50  1  0
 22 51  1  0
 23 52  1  0
 26 53  1  0
 26 54  1  0
 28 55  1  0
M  END

