99444068
     RDKit          3D

 25 26  0  0  1  0  0  0  0  0999 V2000
   -0.5911   -1.1247    0.1852 C   0  0  1  0  0  0  0  0  0  0  0  0
   -1.7152   -0.4698   -0.5458 C   0  0  2  0  0  0  0  0  0  0  0  0
   -1.6677    0.9914   -0.6739 C   0  0  0  0  0  0  0  0  0  0  0  0
   -0.4725    1.6940   -0.1447 C   0  0  0  0  0  0  0  0  0  0  0  0
    0.7406    0.8990   -0.0445 C   0  0  0  0  0  0  0  0  0  0  0  0
    1.9879    1.5108   -0.1086 C   0  0  0  0  0  0  0  0  0  0  0  0
    0.6960   -0.4439    0.1125 C   0  0  0  0  0  0  0  0  0  0  0  0
    1.8625   -1.1789    0.2057 C   0  0  0  0  0  0  0  0  0  0  0  0
    3.1039   -0.5856    0.1438 C   0  0  0  0  0  0  0  0  0  0  0  0
    3.1546    0.7816   -0.0161 C   0  0  0  0  0  0  0  0  0  0  0  0
   -0.9565   -1.1990    1.5505 O   0  0  0  0  0  0  0  0  0  0  0  0
   -2.9901   -0.9340    0.0213 N   0  0  0  0  0  0  0  0  0  0  0  0
   -0.4393   -2.1800   -0.1260 H   0  0  0  0  0  0  0  0  0  0  0  0
   -1.7211   -0.9163   -1.5848 H   0  0  0  0  0  0  0  0  0  0  0  0
   -2.5609    1.4172   -0.1230 H   0  0  0  0  0  0  0  0  0  0  0  0
   -1.8460    1.3295   -1.7386 H   0  0  0  0  0  0  0  0  0  0  0  0
   -0.2465    2.5957   -0.7790 H   0  0  0  0  0  0  0  0  0  0  0  0
   -0.6719    2.1335    0.8774 H   0  0  0  0  0  0  0  0  0  0  0  0
    2.0448    2.5850   -0.2341 H   0  0  0  0  0  0  0  0  0  0  0  0
    1.8082   -2.2591    0.3320 H   0  0  0  0  0  0  0  0  0  0  0  0
    4.0051   -1.1940    0.2206 H   0  0  0  0  0  0  0  0  0  0  0  0
    4.1264    1.2432   -0.0643 H   0  0  0  0  0  0  0  0  0  0  0  0
   -1.4241   -2.0552    1.7224 H   0  0  0  0  0  0  0  0  0  0  0  0
   -3.1841   -1.9121   -0.2263 H   0  0  0  0  0  0  0  0  0  0  0  0
   -3.0430   -0.7282    1.0382 H   0  0  0  0  0  0  0  0  0  0  0  0
  1  2  1  0
  1  7  1  0
  1 11  1  0
  2  3  1  0
  2 12  1  0
  3  4  1  0
  4  5  1  0
  5  6  1  0
  5  7  2  0
  6 10  2  0
  7  8  1  0
  8  9  2  0
  9 10  1  0
  1 13  1  6
  2 14  1  6
  3 15  1  0
  3 16  1  0
  4 17  1  0
  4 18  1  0
  6 19  1  0
  8 20  1  0
  9 21  1  0
 10 22  1  0
 11 23  1  0
 12 24  1  0
 12 25  1  0
M  END

