99443239
     RDKit          3D

 26 26  0  0  1  0  0  0  0  0999 V2000
   -2.3650    0.6505    0.1441 C   0  0  0  0  0  0  0  0  0  0  0  0
   -3.0117   -0.2979   -0.6381 C   0  0  0  0  0  0  0  0  0  0  0  0
   -2.2839   -1.4351   -1.0148 C   0  0  0  0  0  0  0  0  0  0  0  0
   -0.9755   -1.5753   -0.6064 C   0  0  0  0  0  0  0  0  0  0  0  0
   -0.3347   -0.6315    0.1709 C   0  0  0  0  0  0  0  0  0  0  0  0
   -1.0472    0.4688    0.5323 C   0  0  0  0  0  0  0  0  0  0  0  0
   -4.3095   -0.1458   -1.0357 O   0  0  0  0  0  0  0  0  0  0  0  0
    1.0526   -0.8289    0.5761 C   0  0  2  0  0  0  0  0  0  0  0  0
    1.7435    0.4385    1.0124 C   0  0  1  0  0  0  0  0  0  0  0  0
    3.1808    0.1269    1.2859 C   0  0  0  0  0  0  0  0  0  0  0  0
    4.1691    0.7365    0.5107 O   0  0  0  0  0  0  0  0  0  0  0  0
    3.5515   -0.6523    2.1734 O   0  0  0  0  0  0  0  0  0  0  0  0
    1.7561   -1.2686   -0.5722 O   0  0  0  0  0  0  0  0  0  0  0  0
    1.6509    1.3827   -0.0856 N   0  0  0  0  0  0  0  0  0  0  0  0
   -2.9792    1.8161    0.5794 O   0  0  0  0  0  0  0  0  0  0  0  0
   -2.8044   -2.1620   -1.6235 H   0  0  0  0  0  0  0  0  0  0  0  0
   -0.4679   -2.4910   -0.9390 H   0  0  0  0  0  0  0  0  0  0  0  0
   -0.5538    1.2109    1.1396 H   0  0  0  0  0  0  0  0  0  0  0  0
   -4.8695    0.6273   -0.8040 H   0  0  0  0  0  0  0  0  0  0  0  0
    1.1739   -1.6429    1.3232 H   0  0  0  0  0  0  0  0  0  0  0  0
    1.3373    0.8780    1.9240 H   0  0  0  0  0  0  0  0  0  0  0  0
    4.5317    1.6191    0.8642 H   0  0  0  0  0  0  0  0  0  0  0  0
    1.5718   -2.2156   -0.7543 H   0  0  0  0  0  0  0  0  0  0  0  0
    1.9733    2.3237    0.2584 H   0  0  0  0  0  0  0  0  0  0  0  0
    2.2418    1.0850   -0.8930 H   0  0  0  0  0  0  0  0  0  0  0  0
   -3.9320    1.9830    0.3189 H   0  0  0  0  0  0  0  0  0  0  0  0
  1  2  2  0
  2  3  1  0
  5  8  1  0
  3  4  2  0
  8  9  1  0
  4  5  1  0
  9 10  1  0
  5  6  2  0
 10 11  1  0
  1  6  1  0
 10 12  2  0
  8 13  1  0
  2  7  1  0
  9 14  1  0
  1 15  1  0
  3 16  1  0
  4 17  1  0
  6 18  1  0
  7 19  1  0
  8 20  1  1
  9 21  1  1
 11 22  1  0
 13 23  1  0
 14 24  1  0
 14 25  1  0
 15 26  1  0
M  END

