99444378
     RDKit          3D

 27 26  0  0  1  0  0  0  0  0999 V2000
   -3.8333   -0.4153   -0.3489 C   0  0  0  0  0  0  0  0  0  0  0  0
   -3.2817    0.8893    0.1190 C   0  0  0  0  0  0  0  0  0  0  0  0
    3.0538    0.7862    0.6716 O   0  0  0  0  0  0  0  0  0  0  0  0
    3.8941   -1.0835   -0.4960 C   0  0  0  0  0  0  0  0  0  0  0  0
    2.7581   -0.4815    0.2253 C   0  0  2  0  0  0  0  0  0  0  0  0
    1.4911   -0.4431   -0.6211 C   0  0  0  0  0  0  0  0  0  0  0  0
    0.4101    0.0761    0.2658 C   0  0  0  0  0  0  0  0  0  0  0  0
   -0.9341    0.1848   -0.4076 C   0  0  0  0  0  0  0  0  0  0  0  0
   -1.8795    0.7233    0.6471 C   0  0  0  0  0  0  0  0  0  0  0  0
    5.0795   -0.4020   -0.6657 O   0  0  0  0  0  0  0  0  0  0  0  0
    3.7488   -2.2436   -0.9544 O   0  0  0  0  0  0  0  0  0  0  0  0
   -4.0210   -0.3496   -1.4398 H   0  0  0  0  0  0  0  0  0  0  0  0
   -4.8108   -0.6043    0.1548 H   0  0  0  0  0  0  0  0  0  0  0  0
   -3.1759   -1.2608   -0.1050 H   0  0  0  0  0  0  0  0  0  0  0  0
   -3.8929    1.2961    0.9483 H   0  0  0  0  0  0  0  0  0  0  0  0
   -3.2316    1.6305   -0.7051 H   0  0  0  0  0  0  0  0  0  0  0  0
    2.6090    1.0451    1.5074 H   0  0  0  0  0  0  0  0  0  0  0  0
    2.4952   -1.1376    1.1066 H   0  0  0  0  0  0  0  0  0  0  0  0
    1.2929   -1.4832   -0.9309 H   0  0  0  0  0  0  0  0  0  0  0  0
    1.7128    0.2076   -1.4876 H   0  0  0  0  0  0  0  0  0  0  0  0
    0.3054   -0.5903    1.1276 H   0  0  0  0  0  0  0  0  0  0  0  0
    0.6763    1.1074    0.6076 H   0  0  0  0  0  0  0  0  0  0  0  0
   -0.9118    0.9295   -1.2387 H   0  0  0  0  0  0  0  0  0  0  0  0
   -1.3103   -0.7774   -0.7740 H   0  0  0  0  0  0  0  0  0  0  0  0
   -1.8317    0.0697    1.5374 H   0  0  0  0  0  0  0  0  0  0  0  0
   -1.5450    1.7331    0.9833 H   0  0  0  0  0  0  0  0  0  0  0  0
    5.1324    0.5935   -0.6602 H   0  0  0  0  0  0  0  0  0  0  0  0
  1  2  1  0
  2  9  1  0
  5  3  1  0
  4  5  1  0
  4 10  1  0
  4 11  2  0
  5  6  1  0
  6  7  1  0
  7  8  1  0
  8  9  1  0
  1 12  1  0
  1 13  1  0
  1 14  1  0
  2 15  1  0
  2 16  1  0
  3 17  1  0
  5 18  1  1
  6 19  1  0
  6 20  1  0
  7 21  1  0
  7 22  1  0
  8 23  1  0
  8 24  1  0
  9 25  1  0
  9 26  1  0
 10 27  1  0
M  END

