99444945
     RDKit          3D

 43 42  0  0  1  0  0  0  0  0999 V2000
   -2.1905    2.2597   -0.9938 N   0  0  0  0  0  0  0  0  0  0  0  0
   -1.8873    1.8012    0.3272 C   0  0  0  0  0  0  0  0  0  0  0  0
   -1.5478    2.6312    1.1935 O   0  0  0  0  0  0  0  0  0  0  0  0
   -1.9716    0.3669    0.6728 C   0  0  1  0  0  0  0  0  0  0  0  0
   -3.3821   -0.1081    0.4631 C   0  0  0  0  0  0  0  0  0  0  0  0
   -3.5128   -1.5935    0.8041 C   0  0  0  0  0  0  0  0  0  0  0  0
   -3.8639    0.0699   -0.9518 C   0  0  0  0  0  0  0  0  0  0  0  0
   -4.2770    0.6727    1.4136 C   0  0  0  0  0  0  0  0  0  0  0  0
   -0.9495   -0.4139   -0.1125 C   0  0  0  0  0  0  0  0  0  0  0  0
    0.4358    0.0519    0.1817 C   0  0  0  0  0  0  0  0  0  0  0  0
    0.5632    0.9892    1.0063 O   0  0  0  0  0  0  0  0  0  0  0  0
    1.5779   -0.5038   -0.4137 N   0  0  0  0  0  0  0  0  0  0  0  0
    2.8978   -0.0308   -0.1074 C   0  0  0  0  0  0  0  0  0  0  0  0
    3.5579    0.5577   -1.3391 C   0  0  0  0  0  0  0  0  0  0  0  0
    3.6852   -0.4611   -2.4538 C   0  0  0  0  0  0  0  0  0  0  0  0
    3.7552   -1.1094    0.5070 C   0  0  0  0  0  0  0  0  0  0  0  0
    5.1211   -0.5787    0.8117 C   0  0  0  0  0  0  0  0  0  0  0  0
   -1.7837    1.8525   -1.8544 H   0  0  0  0  0  0  0  0  0  0  0  0
   -2.8596    3.0487   -1.0812 H   0  0  0  0  0  0  0  0  0  0  0  0
   -1.7296    0.2507    1.7698 H   0  0  0  0  0  0  0  0  0  0  0  0
   -4.5645   -1.7962    1.0967 H   0  0  0  0  0  0  0  0  0  0  0  0
   -2.8587   -1.8612    1.6586 H   0  0  0  0  0  0  0  0  0  0  0  0
   -3.3114   -2.2214   -0.0870 H   0  0  0  0  0  0  0  0  0  0  0  0
   -4.2618    1.1028   -1.0428 H   0  0  0  0  0  0  0  0  0  0  0  0
   -3.0694   -0.1626   -1.6555 H   0  0  0  0  0  0  0  0  0  0  0  0
   -4.6904   -0.6631   -1.1191 H   0  0  0  0  0  0  0  0  0  0  0  0
   -3.6890    1.0350    2.2737 H   0  0  0  0  0  0  0  0  0  0  0  0
   -5.0983    0.0187    1.7466 H   0  0  0  0  0  0  0  0  0  0  0  0
   -4.6416    1.5651    0.8516 H   0  0  0  0  0  0  0  0  0  0  0  0
   -1.0345   -1.4740    0.2037 H   0  0  0  0  0  0  0  0  0  0  0  0
   -1.1287   -0.3753   -1.1946 H   0  0  0  0  0  0  0  0  0  0  0  0
    1.4452   -1.2952   -1.1078 H   0  0  0  0  0  0  0  0  0  0  0  0
    2.8172    0.7864    0.6285 H   0  0  0  0  0  0  0  0  0  0  0  0
    4.5790    0.8867   -1.0879 H   0  0  0  0  0  0  0  0  0  0  0  0
    3.0003    1.4507   -1.6613 H   0  0  0  0  0  0  0  0  0  0  0  0
    4.3180   -1.2859   -2.0529 H   0  0  0  0  0  0  0  0  0  0  0  0
    2.7043   -0.8348   -2.8001 H   0  0  0  0  0  0  0  0  0  0  0  0
    4.2556    0.0251   -3.2635 H   0  0  0  0  0  0  0  0  0  0  0  0
    3.2738   -1.4110    1.4627 H   0  0  0  0  0  0  0  0  0  0  0  0
    3.8009   -2.0035   -0.1308 H   0  0  0  0  0  0  0  0  0  0  0  0
    5.8696   -0.8857    0.0341 H   0  0  0  0  0  0  0  0  0  0  0  0
    5.1643    0.5392    0.8353 H   0  0  0  0  0  0  0  0  0  0  0  0
    5.4812   -0.8926    1.8310 H   0  0  0  0  0  0  0  0  0  0  0  0
  1  2  1  0
  2  3  2  0
  2  4  1  0
  4  5  1  0
  4  9  1  0
  5  6  1  0
  5  7  1  0
  5  8  1  0
  9 10  1  0
 10 11  2  0
 10 12  1  0
 12 13  1  0
 13 14  1  0
 13 16  1  0
 14 15  1  0
 16 17  1  0
  1 18  1  0
  1 19  1  0
  4 20  1  1
  6 21  1  0
  6 22  1  0
  6 23  1  0
  7 24  1  0
  7 25  1  0
  7 26  1  0
  8 27  1  0
  8 28  1  0
  8 29  1  0
  9 30  1  0
  9 31  1  0
 12 32  1  0
 13 33  1  0
 14 34  1  0
 14 35  1  0
 15 36  1  0
 15 37  1  0
 15 38  1  0
 16 39  1  0
 16 40  1  0
 17 41  1  0
 17 42  1  0
 17 43  1  0
M  END

