99443856
     RDKit          3D

 42 45  0  0  1  0  0  0  0  0999 V2000
    6.4673    0.6426   -0.4612 C   0  0  0  0  0  0  0  0  0  0  0  0
   -1.8281   -2.8207   -0.7388 C   0  0  0  0  0  0  0  0  0  0  0  0
   -5.8999    1.0044   -0.3147 C   0  0  0  0  0  0  0  0  0  0  0  0
   -4.9271    1.5118   -1.1298 C   0  0  0  0  0  0  0  0  0  0  0  0
   -5.6340   -0.0427    0.5655 C   0  0  0  0  0  0  0  0  0  0  0  0
   -3.6695    0.9735   -1.0706 C   0  0  0  0  0  0  0  0  0  0  0  0
   -4.3303   -0.5758    0.6013 C   0  0  0  0  0  0  0  0  0  0  0  0
    2.5941   -1.5503   -0.4066 C   0  0  0  0  0  0  0  0  0  0  0  0
    4.9859   -0.0219    1.4541 C   0  0  0  0  0  0  0  0  0  0  0  0
   -1.1991    1.9309    0.7692 C   0  0  0  0  0  0  0  0  0  0  0  0
    5.2574    0.9900    0.4090 C   0  0  2  0  0  0  0  0  0  0  0  0
   -3.3345   -0.0924   -0.1941 C   0  0  0  0  0  0  0  0  0  0  0  0
   -0.9891    0.5737    0.2021 C   0  0  0  0  0  0  0  0  0  0  0  0
    2.7589   -0.3100   -0.0360 C   0  0  0  0  0  0  0  0  0  0  0  0
    1.2969   -2.2054   -0.5800 C   0  0  0  0  0  0  0  0  0  0  0  0
    0.2379   -0.0396    0.0730 C   0  0  0  0  0  0  0  0  0  0  0  0
   -1.9088   -0.4300   -0.1059 C   0  0  0  0  0  0  0  0  0  0  0  0
    0.1049   -1.3549   -0.3098 C   0  0  0  0  0  0  0  0  0  0  0  0
    1.5857    0.5333    0.2263 C   0  0  0  0  0  0  0  0  0  0  0  0
   -1.2475   -1.5466   -0.3994 N   0  0  0  0  0  0  0  0  0  0  0  0
    4.0367    0.2898    0.2825 N   0  0  0  0  0  0  0  0  0  0  0  0
   -0.6569    2.9454   -0.0365 O   0  0  0  0  0  0  0  0  0  0  0  0
    1.1477   -3.3759   -0.9247 O   0  0  0  0  0  0  0  0  0  0  0  0
    1.6916    1.7105    0.5789 O   0  0  0  0  0  0  0  0  0  0  0  0
    6.2566   -0.3474   -0.9052 H   0  0  0  0  0  0  0  0  0  0  0  0
    6.6046    1.4119   -1.2051 H   0  0  0  0  0  0  0  0  0  0  0  0
    7.3238    0.6314    0.2250 H   0  0  0  0  0  0  0  0  0  0  0  0
   -1.1113   -3.5255   -1.1680 H   0  0  0  0  0  0  0  0  0  0  0  0
   -2.2385   -3.3233    0.1777 H   0  0  0  0  0  0  0  0  0  0  0  0
   -2.6756   -2.6763   -1.4066 H   0  0  0  0  0  0  0  0  0  0  0  0
   -6.9042    1.4277   -0.3485 H   0  0  0  0  0  0  0  0  0  0  0  0
   -5.2019    2.3280   -1.7785 H   0  0  0  0  0  0  0  0  0  0  0  0
   -6.4075   -0.3871    1.2015 H   0  0  0  0  0  0  0  0  0  0  0  0
   -2.8740    1.3244   -1.6850 H   0  0  0  0  0  0  0  0  0  0  0  0
   -4.1205   -1.3969    1.2643 H   0  0  0  0  0  0  0  0  0  0  0  0
    3.5103   -2.1534   -0.6131 H   0  0  0  0  0  0  0  0  0  0  0  0
    5.3948   -1.0643    1.2845 H   0  0  0  0  0  0  0  0  0  0  0  0
    4.5995    0.2075    2.4445 H   0  0  0  0  0  0  0  0  0  0  0  0
   -1.1849    2.0449    1.8265 H   0  0  0  0  0  0  0  0  0  0  0  0
   -2.3497    2.1446    0.5176 H   0  0  0  0  0  0  0  0  0  0  0  0
    5.3019    2.0551    0.7701 H   0  0  0  0  0  0  0  0  0  0  0  0
   -0.4635    2.5588   -0.9146 H   0  0  0  0  0  0  0  0  0  0  0  0
  3  4  2  0
  3  5  1  0
  4  6  1  0
  5  7  2  0
 11  1  1  0
  9 11  1  0
  6 12  2  0
  7 12  1  0
 10 13  1  0
  8 14  2  0
  8 15  1  0
 13 16  1  0
 12 17  1  0
 13 17  2  0
 15 18  1  0
 16 18  2  0
 14 19  1  0
 16 19  1  0
  2 20  1  0
 17 20  1  0
 18 20  1  0
  9 21  1  0
 11 21  1  0
 21 14  1  0
 10 22  1  0
 15 23  2  0
 19 24  2  0
  1 25  1  0
  1 26  1  0
  1 27  1  0
  2 28  1  0
  2 29  1  0
  2 30  1  0
  3 31  1  0
  4 32  1  0
  5 33  1  0
  6 34  1  0
  7 35  1  0
  8 36  1  0
  9 37  1  0
  9 38  1  0
 10 39  1  0
 10 40  1  0
 11 41  1  1
 22 42  1  0
M  END

