99444522
     RDKit          3D

 54 56  0  0  1  0  0  0  0  0999 V2000
   -4.5666    1.6694   -0.6353 C   0  0  0  0  0  0  0  0  0  0  0  0
   -5.6049    2.4602   -1.1855 C   0  0  0  0  0  0  0  0  0  0  0  0
   -5.2833    3.5485   -1.9568 C   0  0  0  0  0  0  0  0  0  0  0  0
   -3.9642    3.8445   -2.1767 C   0  0  0  0  0  0  0  0  0  0  0  0
   -2.9756    3.0589   -1.6304 C   0  0  0  0  0  0  0  0  0  0  0  0
   -3.2494    1.9330   -0.8333 C   0  0  0  0  0  0  0  0  0  0  0  0
   -2.1605    1.1640   -0.3324 C   0  0  0  0  0  0  0  0  0  0  0  0
   -0.9966    1.7281   -0.6010 O   0  0  0  0  0  0  0  0  0  0  0  0
   -2.1061   -0.0577    0.3772 N   0  0  0  0  0  0  0  0  0  0  0  0
   -3.3259   -0.7628    0.7644 C   0  0  0  0  0  0  0  0  0  0  0  0
   -3.0255   -2.1512    1.3705 C   0  0  0  0  0  0  0  0  0  0  0  0
   -2.3183   -2.0449    2.6936 C   0  0  0  0  0  0  0  0  0  0  0  0
   -0.8374   -2.2531    2.4129 C   0  0  0  0  0  0  0  0  0  0  0  0
   -0.2533   -0.9384    1.9512 C   0  0  0  0  0  0  0  0  0  0  0  0
   -0.7860   -0.4936    0.6697 N   0  0  0  0  0  0  0  0  0  0  0  0
    0.0993   -0.5335   -0.4483 C   0  0  0  0  0  0  0  0  0  0  0  0
   -0.2276   -0.2847   -1.6212 O   0  0  0  0  0  0  0  0  0  0  0  0
    1.5466   -0.8984   -0.2422 C   0  0  0  0  0  0  0  0  0  0  0  0
    2.2636   -0.8859   -1.5561 C   0  0  2  0  0  0  0  0  0  0  0  0
    1.6253   -1.8566   -2.4275 N   0  0  0  0  0  0  0  0  0  0  0  0
    3.7129   -1.2521   -1.4425 C   0  0  0  0  0  0  0  0  0  0  0  0
    4.4754   -0.3409   -0.5713 C   0  0  0  0  0  0  0  0  0  0  0  0
    4.8217   -0.7396    0.7021 C   0  0  0  0  0  0  0  0  0  0  0  0
    5.5388    0.0932    1.5512 C   0  0  0  0  0  0  0  0  0  0  0  0
    5.8814   -0.2931    2.8026 F   0  0  0  0  0  0  0  0  0  0  0  0
    5.9343    1.3530    1.1561 C   0  0  0  0  0  0  0  0  0  0  0  0
    6.6395    2.1799    1.9824 F   0  0  0  0  0  0  0  0  0  0  0  0
    5.5904    1.7577   -0.1181 C   0  0  0  0  0  0  0  0  0  0  0  0
    4.8692    0.9173   -0.9689 C   0  0  0  0  0  0  0  0  0  0  0  0
    4.5418    1.3263   -2.2081 F   0  0  0  0  0  0  0  0  0  0  0  0
   -4.9484    0.8643   -0.0435 H   0  0  0  0  0  0  0  0  0  0  0  0
   -6.6331    2.2129   -1.0027 H   0  0  0  0  0  0  0  0  0  0  0  0
   -6.0498    4.1701   -2.3895 H   0  0  0  0  0  0  0  0  0  0  0  0
   -3.6902    4.6966   -2.7798 H   0  0  0  0  0  0  0  0  0  0  0  0
   -1.9359    3.3448   -1.8427 H   0  0  0  0  0  0  0  0  0  0  0  0
   -3.9079   -0.2342    1.5213 H   0  0  0  0  0  0  0  0  0  0  0  0
   -3.9120   -1.0032   -0.1212 H   0  0  0  0  0  0  0  0  0  0  0  0
   -2.3954   -2.7019    0.6504 H   0  0  0  0  0  0  0  0  0  0  0  0
   -4.0117   -2.6631    1.4710 H   0  0  0  0  0  0  0  0  0  0  0  0
   -2.6644   -2.8232    3.3793 H   0  0  0  0  0  0  0  0  0  0  0  0
   -2.4414   -1.0180    3.1108 H   0  0  0  0  0  0  0  0  0  0  0  0
   -0.6490   -3.0451    1.6844 H   0  0  0  0  0  0  0  0  0  0  0  0
   -0.3205   -2.5066    3.3602 H   0  0  0  0  0  0  0  0  0  0  0  0
   -0.4152   -0.2342    2.7873 H   0  0  0  0  0  0  0  0  0  0  0  0
    0.8641   -1.0061    1.8628 H   0  0  0  0  0  0  0  0  0  0  0  0
    1.9695   -0.1094    0.4161 H   0  0  0  0  0  0  0  0  0  0  0  0
    1.5891   -1.9137    0.1995 H   0  0  0  0  0  0  0  0  0  0  0  0
    2.1243    0.1199   -2.0140 H   0  0  0  0  0  0  0  0  0  0  0  0
    0.8709   -2.3830   -1.9442 H   0  0  0  0  0  0  0  0  0  0  0  0
    2.3042   -2.5716   -2.7776 H   0  0  0  0  0  0  0  0  0  0  0  0
    4.1377   -1.1795   -2.4862 H   0  0  0  0  0  0  0  0  0  0  0  0
    3.8086   -2.3086   -1.1626 H   0  0  0  0  0  0  0  0  0  0  0  0
    4.5459   -1.7069    1.0743 H   0  0  0  0  0  0  0  0  0  0  0  0
    5.9016    2.7520   -0.4321 H   0  0  0  0  0  0  0  0  0  0  0  0
  1  2  2  0
  1  6  1  0
  2  3  1  0
  3  4  2  0
  4  5  1  0
  5  6  2  0
  6  7  1  0
  7  9  1  0
  7  8  2  0
  9 15  1  0
  9 10  1  0
 10 11  1  0
 11 12  1  0
 12 13  1  0
 13 14  1  0
 14 15  1  0
 15 16  1  0
 16 18  1  0
 16 17  2  0
 18 19  1  0
 19 20  1  0
 19 21  1  0
 21 22  1  0
 22 23  2  0
 22 29  1  0
 23 24  1  0
 24 25  1  0
 24 26  2  0
 26 27  1  0
 26 28  1  0
 28 29  2  0
 29 30  1  0
  1 31  1  0
  2 32  1  0
  3 33  1  0
  4 34  1  0
  5 35  1  0
 10 36  1  0
 10 37  1  0
 11 38  1  0
 11 39  1  0
 12 40  1  0
 12 41  1  0
 13 42  1  0
 13 43  1  0
 14 44  1  0
 14 45  1  0
 18 46  1  0
 18 47  1  0
 19 48  1  6
 20 49  1  0
 20 50  1  0
 21 51  1  0
 21 52  1  0
 23 53  1  0
 28 54  1  0
M  END

