99444680
     RDKit          3D

 35 36  0  0  0  0  0  0  0  0999 V2000
    5.8783   -0.6399   -0.9989 C   0  0  0  0  0  0  0  0  0  0  0  0
    5.3884    0.2247   -0.0295 C   0  0  0  0  0  0  0  0  0  0  0  0
    4.0385    0.3597    0.2112 C   0  0  0  0  0  0  0  0  0  0  0  0
    3.1799   -0.4000   -0.5503 C   0  0  0  0  0  0  0  0  0  0  0  0
    3.6689   -1.2687   -1.5243 C   0  0  0  0  0  0  0  0  0  0  0  0
    5.0203   -1.4021   -1.7633 C   0  0  0  0  0  0  0  0  0  0  0  0
    1.7983   -0.3237   -0.3647 N   0  0  0  0  0  0  0  0  0  0  0  0
    0.9272    0.0658   -1.1786 N   0  0  0  0  0  0  0  0  0  0  0  0
   -0.4626    0.1039   -0.8873 C   0  0  0  0  0  0  0  0  0  0  0  0
   -1.1560    1.2812   -0.7235 C   0  0  0  0  0  0  0  0  0  0  0  0
   -2.5054    1.2692   -0.4388 C   0  0  0  0  0  0  0  0  0  0  0  0
   -3.2064    0.0797   -0.3083 C   0  0  0  0  0  0  0  0  0  0  0  0
   -2.4820   -1.0806   -0.4782 C   0  0  0  0  0  0  0  0  0  0  0  0
   -1.1332   -1.0899   -0.7631 C   0  0  0  0  0  0  0  0  0  0  0  0
   -4.5913    0.0039   -0.0104 N   0  0  0  0  0  0  0  0  0  0  0  0
    3.5327    1.2757    1.2368 C   0  0  0  0  0  0  0  0  0  0  0  0
    4.4338    2.0186    1.9803 O   0  0  0  0  0  0  0  0  0  0  0  0
    2.3138    1.4176    1.4719 O   0  0  0  0  0  0  0  0  0  0  0  0
   -4.9711   -0.0998    1.3838 C   0  0  0  0  0  0  0  0  0  0  0  0
   -5.5788    0.0325   -1.0667 C   0  0  0  0  0  0  0  0  0  0  0  0
    6.9481   -0.7254   -1.1671 H   0  0  0  0  0  0  0  0  0  0  0  0
    6.0512    0.8374    0.5870 H   0  0  0  0  0  0  0  0  0  0  0  0
    2.9994   -1.8693   -2.1274 H   0  0  0  0  0  0  0  0  0  0  0  0
    5.4107   -2.0818   -2.5258 H   0  0  0  0  0  0  0  0  0  0  0  0
   -0.6516    2.2582   -0.8162 H   0  0  0  0  0  0  0  0  0  0  0  0
   -3.0745    2.1892   -0.3056 H   0  0  0  0  0  0  0  0  0  0  0  0
   -2.9565   -2.0657   -0.3924 H   0  0  0  0  0  0  0  0  0  0  0  0
   -0.6085   -2.0507   -0.8871 H   0  0  0  0  0  0  0  0  0  0  0  0
    4.5059    1.8021    2.9802 H   0  0  0  0  0  0  0  0  0  0  0  0
   -6.0538    0.1377    1.5113 H   0  0  0  0  0  0  0  0  0  0  0  0
   -4.4146    0.6623    1.9714 H   0  0  0  0  0  0  0  0  0  0  0  0
   -4.7329   -1.1058    1.7921 H   0  0  0  0  0  0  0  0  0  0  0  0
   -6.5110   -0.4855   -0.7913 H   0  0  0  0  0  0  0  0  0  0  0  0
   -5.2169   -0.4396   -2.0044 H   0  0  0  0  0  0  0  0  0  0  0  0
   -5.7884    1.1092   -1.2686 H   0  0  0  0  0  0  0  0  0  0  0  0
  1  2  2  0
  1  6  1  0
  2  3  1  0
  3  4  2  0
  4  5  1  0
  5  6  2  0
  4  7  1  0
  7  8  2  0
  8  9  1  0
  9 10  2  0
  9 14  1  0
 10 11  1  0
 11 12  2  0
 12 13  1  0
 13 14  2  0
 12 15  1  0
  3 16  1  0
 16 17  1  0
 16 18  2  0
 15 19  1  0
 15 20  1  0
  1 21  1  0
  2 22  1  0
  5 23  1  0
  6 24  1  0
 10 25  1  0
 11 26  1  0
 13 27  1  0
 14 28  1  0
 17 29  1  0
 19 30  1  0
 19 31  1  0
 19 32  1  0
 20 33  1  0
 20 34  1  0
 20 35  1  0
M  END

