99443714
     RDKit          3D

 40 43  0  0  1  0  0  0  0  0999 V2000
    2.7449   -0.3281   -0.5449 C   0  0  0  0  0  0  0  0  0  0  0  0
    1.2581    1.3999    0.1374 O   0  0  0  0  0  0  0  0  0  0  0  0
   -3.6744    1.8537    1.0029 C   0  0  0  0  0  0  0  0  0  0  0  0
    1.4554    0.2166   -0.1915 C   0  0  0  0  0  0  0  0  0  0  0  0
    3.0649   -1.6038   -0.9177 C   0  0  0  0  0  0  0  0  0  0  0  0
    0.3455   -0.6146   -0.2123 O   0  0  0  0  0  0  0  0  0  0  0  0
   -4.0183   -1.4145    1.1016 C   0  0  0  0  0  0  0  0  0  0  0  0
   -4.1072   -1.1655   -0.4024 C   0  0  0  0  0  0  0  0  0  0  0  0
   -3.1888    0.6434    0.6467 N   0  0  0  0  0  0  0  0  0  0  0  0
   -3.2838    0.1105   -0.6453 C   0  0  1  0  0  0  0  0  0  0  0  0
   -1.9113   -0.3704   -1.0756 C   0  0  0  0  0  0  0  0  0  0  0  0
   -2.9400   -0.4051    1.5366 C   0  0  2  0  0  0  0  0  0  0  0  0
   -1.5635   -0.9794    1.2579 C   0  0  0  0  0  0  0  0  0  0  0  0
   -0.9428   -0.2634    0.0924 C   0  0  1  0  0  0  0  0  0  0  0  0
    6.4730    1.2577   -0.7761 C   0  0  0  0  0  0  0  0  0  0  0  0
    6.2260   -0.0277   -1.0559 N   0  0  0  0  0  0  0  0  0  0  0  0
    4.9631   -0.4929   -0.9596 C   0  0  0  0  0  0  0  0  0  0  0  0
    3.9318    0.3695   -0.5703 C   0  0  0  0  0  0  0  0  0  0  0  0
    4.2068    1.6879   -0.2870 C   0  0  0  0  0  0  0  0  0  0  0  0
    5.5043    2.1513   -0.3896 C   0  0  0  0  0  0  0  0  0  0  0  0
    4.3842   -1.6935   -1.1623 N   0  0  0  0  0  0  0  0  0  0  0  0
   -4.7685    1.9285    1.2028 H   0  0  0  0  0  0  0  0  0  0  0  0
   -3.1813    2.2381    1.9373 H   0  0  0  0  0  0  0  0  0  0  0  0
   -3.4537    2.6357    0.2344 H   0  0  0  0  0  0  0  0  0  0  0  0
    2.3172   -2.4030   -0.9916 H   0  0  0  0  0  0  0  0  0  0  0  0
   -4.9583   -1.1151    1.6200 H   0  0  0  0  0  0  0  0  0  0  0  0
   -3.7170   -2.4469    1.3275 H   0  0  0  0  0  0  0  0  0  0  0  0
   -5.1359   -0.9403   -0.7134 H   0  0  0  0  0  0  0  0  0  0  0  0
   -3.6626   -2.0359   -0.8963 H   0  0  0  0  0  0  0  0  0  0  0  0
   -3.7577    0.7431   -1.4142 H   0  0  0  0  0  0  0  0  0  0  0  0
   -1.5391    0.1948   -1.9588 H   0  0  0  0  0  0  0  0  0  0  0  0
   -1.9096   -1.4379   -1.3769 H   0  0  0  0  0  0  0  0  0  0  0  0
   -3.0760   -0.1125    2.5908 H   0  0  0  0  0  0  0  0  0  0  0  0
   -1.6844   -2.0378    0.9719 H   0  0  0  0  0  0  0  0  0  0  0  0
   -0.9285   -0.9470    2.1688 H   0  0  0  0  0  0  0  0  0  0  0  0
   -0.9472    0.8344    0.3675 H   0  0  0  0  0  0  0  0  0  0  0  0
    7.5100    1.5884   -0.8681 H   0  0  0  0  0  0  0  0  0  0  0  0
    3.3858    2.3479    0.0163 H   0  0  0  0  0  0  0  0  0  0  0  0
    5.7014    3.1889   -0.1634 H   0  0  0  0  0  0  0  0  0  0  0  0
    4.8775   -2.5551   -1.4607 H   0  0  0  0  0  0  0  0  0  0  0  0
  1 18  1  0
  1  5  2  0
  1  4  1  0
  2  4  2  0
  3  9  1  0
  4  6  1  0
  5 21  1  0
 14  6  1  0
  7  8  1  0
  7 12  1  0
  8 10  1  0
  9 10  1  0
  9 12  1  0
 10 11  1  0
 11 14  1  0
 12 13  1  0
 13 14  1  0
 15 16  2  0
 15 20  1  0
 16 17  1  0
 17 21  1  0
 17 18  2  0
 18 19  1  0
 19 20  2  0
  3 22  1  0
  3 23  1  0
  3 24  1  0
  5 25  1  0
  7 26  1  0
  7 27  1  0
  8 28  1  0
  8 29  1  0
 10 30  1  6
 11 31  1  0
 11 32  1  0
 12 33  1  1
 13 34  1  0
 13 35  1  0
 14 36  1  1
 15 37  1  0
 19 38  1  0
 20 39  1  0
 21 40  1  0
M  END

