99443369
     RDKit          3D

 30 32  0  0  0  0  0  0  0  0999 V2000
    0.4956   -0.0943   -0.1004 C   0  0  0  0  0  0  0  0  0  0  0  0
    1.7841    0.1674    0.3309 C   0  0  0  0  0  0  0  0  0  0  0  0
    3.0141   -0.0967   -0.1206 N   0  0  0  0  0  0  0  0  0  0  0  0
    3.3462   -0.8125   -1.3244 C   0  0  0  0  0  0  0  0  0  0  0  0
    3.9607    0.4043    0.7160 C   0  0  0  0  0  0  0  0  0  0  0  0
    5.3702    0.3155    0.5582 N   0  0  0  0  0  0  0  0  0  0  0  0
    3.2586    0.9895    1.7044 N   0  0  0  0  0  0  0  0  0  0  0  0
    1.9368    0.8626    1.4993 C   0  0  0  0  0  0  0  0  0  0  0  0
    0.8828    1.2978    2.2383 N   0  0  0  0  0  0  0  0  0  0  0  0
   -0.3591    1.0357    1.8062 C   0  0  0  0  0  0  0  0  0  0  0  0
   -0.5766    0.3391    0.6359 C   0  0  0  0  0  0  0  0  0  0  0  0
   -1.9452    0.0896    0.2237 C   0  0  0  0  0  0  0  0  0  0  0  0
   -2.9366   -0.0894    1.1531 C   0  0  0  0  0  0  0  0  0  0  0  0
   -4.2256   -0.3271    0.7227 C   0  0  0  0  0  0  0  0  0  0  0  0
   -4.5374   -0.3881   -0.6246 C   0  0  0  0  0  0  0  0  0  0  0  0
   -5.8513   -0.6300   -1.0098 O   0  0  0  0  0  0  0  0  0  0  0  0
   -3.5439   -0.2087   -1.5601 C   0  0  0  0  0  0  0  0  0  0  0  0
   -2.2696    0.0262   -1.1166 C   0  0  0  0  0  0  0  0  0  0  0  0
    0.3656   -0.6523   -1.0383 H   0  0  0  0  0  0  0  0  0  0  0  0
    3.8793   -0.1215   -2.0339 H   0  0  0  0  0  0  0  0  0  0  0  0
    4.0284   -1.6707   -1.1233 H   0  0  0  0  0  0  0  0  0  0  0  0
    2.4269   -1.1360   -1.8792 H   0  0  0  0  0  0  0  0  0  0  0  0
    5.8138   -0.0563   -0.3007 H   0  0  0  0  0  0  0  0  0  0  0  0
    5.9808    0.6349    1.3324 H   0  0  0  0  0  0  0  0  0  0  0  0
   -1.1697    1.4076    2.4372 H   0  0  0  0  0  0  0  0  0  0  0  0
   -2.7526   -0.0526    2.2311 H   0  0  0  0  0  0  0  0  0  0  0  0
   -5.0013   -0.4674    1.4849 H   0  0  0  0  0  0  0  0  0  0  0  0
   -6.0822   -0.6749   -1.9989 H   0  0  0  0  0  0  0  0  0  0  0  0
   -3.8177   -0.2617   -2.5989 H   0  0  0  0  0  0  0  0  0  0  0  0
   -1.4752    0.1701   -1.8256 H   0  0  0  0  0  0  0  0  0  0  0  0
  1  2  2  0
  2  3  1  0
  3  5  1  0
  3  4  1  0
  5  6  1  0
  5  7  2  0
  2  8  1  0
  7  8  1  0
  8  9  2  0
  9 10  1  0
 10 11  2  0
  1 11  1  0
 11 12  1  0
 12 18  1  0
 12 13  2  0
 13 14  1  0
 14 15  2  0
 15 17  1  0
 15 16  1  0
 17 18  2  0
  1 19  1  0
  4 20  1  0
  4 21  1  0
  4 22  1  0
  6 23  1  0
  6 24  1  0
 10 25  1  0
 13 26  1  0
 14 27  1  0
 16 28  1  0
 17 29  1  0
 18 30  1  0
M  END

