99444440
     RDKit          3D

 47 50  0  0  0  0  0  0  0  0999 V2000
   -3.5830    2.9283    1.0542 C   0  0  0  0  0  0  0  0  0  0  0  0
   -3.2343    1.6149    1.3027 C   0  0  0  0  0  0  0  0  0  0  0  0
   -3.4827    3.4563   -0.2337 C   0  0  0  0  0  0  0  0  0  0  0  0
   -2.7852    0.8216    0.2726 C   0  0  0  0  0  0  0  0  0  0  0  0
   -3.0352    2.6718   -1.2561 C   0  0  0  0  0  0  0  0  0  0  0  0
   -2.6933    1.3637   -0.9847 C   0  0  0  0  0  0  0  0  0  0  0  0
   -2.4866   -0.5862    0.4464 C   0  0  0  0  0  0  0  0  0  0  0  0
   -1.2315   -1.1260    0.3437 C   0  0  0  0  0  0  0  0  0  0  0  0
   -3.6073   -1.4173    0.6760 C   0  0  0  0  0  0  0  0  0  0  0  0
   -3.4393   -2.7727    0.7961 C   0  0  0  0  0  0  0  0  0  0  0  0
    1.1180   -0.8776    0.0829 C   0  0  0  0  0  0  0  0  0  0  0  0
    1.2370   -2.2757    0.2053 C   0  0  0  0  0  0  0  0  0  0  0  0
    2.3060   -0.1351   -0.0609 N   0  0  0  0  0  0  0  0  0  0  0  0
    4.6174   -0.4474   -0.4545 C   0  0  0  0  0  0  0  0  0  0  0  0
    2.3740    1.0516   -0.8692 C   0  0  0  0  0  0  0  0  0  0  0  0
   -4.1180   -4.8931    1.4524 F   0  0  0  0  0  0  0  0  0  0  0  0
   -4.6028   -3.6630    1.0358 C   0  0  0  0  0  0  0  0  0  0  0  0
   -5.1895   -3.9043   -0.2027 F   0  0  0  0  0  0  0  0  0  0  0  0
   -5.4790   -3.2201    1.9685 F   0  0  0  0  0  0  0  0  0  0  0  0
   -2.9222    3.1767   -2.5521 O   0  0  0  0  0  0  0  0  0  0  0  0
   -2.1688   -3.2763    0.6859 C   0  0  0  0  0  0  0  0  0  0  0  0
   -1.0535   -2.4859    0.4615 C   0  0  0  0  0  0  0  0  0  0  0  0
    0.1779   -3.0675    0.3915 N   0  0  0  0  0  0  0  0  0  0  0  0
   -0.1285   -0.3619    0.1570 N   0  0  0  0  0  0  0  0  0  0  0  0
    3.6833    1.7626   -0.5367 C   0  0  0  0  0  0  0  0  0  0  0  0
    4.8593    0.9783   -0.7356 N   0  0  0  0  0  0  0  0  0  0  0  0
    5.8846    1.3719    0.2468 C   0  0  0  0  0  0  0  0  0  0  0  0
    3.5638   -0.4830    0.6195 C   0  0  0  0  0  0  0  0  0  0  0  0
   -3.9431    3.5812    1.8433 H   0  0  0  0  0  0  0  0  0  0  0  0
   -3.3184    1.2347    2.3305 H   0  0  0  0  0  0  0  0  0  0  0  0
   -3.7618    4.4778   -0.3941 H   0  0  0  0  0  0  0  0  0  0  0  0
   -2.3352    0.7571   -1.8352 H   0  0  0  0  0  0  0  0  0  0  0  0
   -4.5943   -0.9848    0.7607 H   0  0  0  0  0  0  0  0  0  0  0  0
    2.2451   -2.6854    0.1321 H   0  0  0  0  0  0  0  0  0  0  0  0
    5.5407   -0.9446   -0.0853 H   0  0  0  0  0  0  0  0  0  0  0  0
    4.2039   -0.8920   -1.3621 H   0  0  0  0  0  0  0  0  0  0  0  0
    2.4630    0.7593   -1.9423 H   0  0  0  0  0  0  0  0  0  0  0  0
    1.5814    1.7759   -0.6686 H   0  0  0  0  0  0  0  0  0  0  0  0
   -3.7468    3.0836   -3.1575 H   0  0  0  0  0  0  0  0  0  0  0  0
   -2.0085   -4.3371    0.7778 H   0  0  0  0  0  0  0  0  0  0  0  0
    3.7154    2.6455   -1.2414 H   0  0  0  0  0  0  0  0  0  0  0  0
    3.6647    2.2053    0.4828 H   0  0  0  0  0  0  0  0  0  0  0  0
    6.0937    0.5674    0.9878 H   0  0  0  0  0  0  0  0  0  0  0  0
    5.5140    2.2239    0.8197 H   0  0  0  0  0  0  0  0  0  0  0  0
    6.8485    1.5781   -0.2494 H   0  0  0  0  0  0  0  0  0  0  0  0
    3.7635    0.2253    1.4489 H   0  0  0  0  0  0  0  0  0  0  0  0
    3.4932   -1.4755    1.0460 H   0  0  0  0  0  0  0  0  0  0  0  0
  1  2  2  0
  1  3  1  0
  2  4  1  0
  3  5  2  0
  4  6  2  0
  4  7  1  0
  5  6  1  0
  5 20  1  0
  7  8  1  0
  7  9  2  0
  8 22  2  0
  8 24  1  0
  9 10  1  0
 10 17  1  0
 10 21  2  0
 11 12  1  0
 11 13  1  0
 11 24  2  0
 12 23  2  0
 13 15  1  0
 13 28  1  0
 14 26  1  0
 14 28  1  0
 15 25  1  0
 16 17  1  0
 17 18  1  0
 17 19  1  0
 21 22  1  0
 22 23  1  0
 25 26  1  0
 26 27  1  0
  1 29  1  0
  2 30  1  0
  3 31  1  0
  6 32  1  0
  9 33  1  0
 12 34  1  0
 14 35  1  0
 14 36  1  0
 15 37  1  0
 15 38  1  0
 20 39  1  0
 21 40  1  0
 25 41  1  0
 25 42  1  0
 27 43  1  0
 27 44  1  0
 27 45  1  0
 28 46  1  0
 28 47  1  0
M  END

