99443433
     RDKit          3D

 55 59  0  0  0  0  0  0  0  0999 V2000
    0.5344    0.4383    1.7679 C   0  0  0  0  0  0  0  0  0  0  0  0
    0.9754   -0.2835    2.7693 O   0  0  0  0  0  0  0  0  0  0  0  0
    2.6283   -0.0321    0.5865 O   0  0  0  0  0  0  0  0  0  0  0  0
    1.4149    0.5649    0.6152 C   0  0  0  0  0  0  0  0  0  0  0  0
    1.2913    1.2141   -0.5722 C   0  0  0  0  0  0  0  0  0  0  0  0
    2.4717    0.9732   -1.2872 C   0  0  0  0  0  0  0  0  0  0  0  0
    3.2646    0.1826   -0.4957 C   0  0  0  0  0  0  0  0  0  0  0  0
    4.5804   -0.2744   -0.9117 C   0  0  0  0  0  0  0  0  0  0  0  0
    5.6725   -0.6641   -1.2381 C   0  0  0  0  0  0  0  0  0  0  0  0
    6.9840   -1.1094   -1.6150 C   0  0  0  0  0  0  0  0  0  0  0  0
    7.8545   -0.2494   -2.2698 C   0  0  0  0  0  0  0  0  0  0  0  0
    9.1195   -0.6461   -2.6446 C   0  0  0  0  0  0  0  0  0  0  0  0
    9.5770   -1.9208   -2.3840 C   0  0  0  0  0  0  0  0  0  0  0  0
    8.7237   -2.7857   -1.7345 C   0  0  0  0  0  0  0  0  0  0  0  0
    7.4611   -2.3780   -1.3645 C   0  0  0  0  0  0  0  0  0  0  0  0
   -5.5619    2.0812    1.5228 O   0  0  0  0  0  0  0  0  0  0  0  0
   -4.7840    1.5721    2.5953 C   0  0  0  0  0  0  0  0  0  0  0  0
   -3.5207    1.1603    1.8561 C   0  0  0  0  0  0  0  0  0  0  0  0
   -4.1230    0.5852    0.6110 C   0  0  0  0  0  0  0  0  0  0  0  0
   -5.3560    1.1822    0.4585 C   0  0  0  0  0  0  0  0  0  0  0  0
   -3.6767   -0.3394   -0.2973 C   0  0  0  0  0  0  0  0  0  0  0  0
   -4.4653   -0.6754   -1.3720 C   0  0  0  0  0  0  0  0  0  0  0  0
   -5.6997   -0.0732   -1.5194 C   0  0  0  0  0  0  0  0  0  0  0  0
   -6.1489    0.8594   -0.6018 C   0  0  0  0  0  0  0  0  0  0  0  0
   -0.7109    1.0114    1.8862 N   0  0  0  0  0  0  0  0  0  0  0  0
   -1.3563    1.8258    0.9128 C   0  0  0  0  0  0  0  0  0  0  0  0
   -2.6870    2.3337    1.4755 C   0  0  0  0  0  0  0  0  0  0  0  0
   -2.7860    0.1393    2.6651 C   0  0  0  0  0  0  0  0  0  0  0  0
   -1.4834    0.7820    3.1261 C   0  0  0  0  0  0  0  0  0  0  0  0
   -3.9832   -1.6706   -2.3480 C   0  0  0  0  0  0  0  0  0  0  0  0
   -4.3816   -3.0212   -2.0073 N   0  0  0  0  0  0  0  0  0  0  0  0
    0.4677    1.7990   -0.9179 H   0  0  0  0  0  0  0  0  0  0  0  0
    2.6921    1.3502   -2.2742 H   0  0  0  0  0  0  0  0  0  0  0  0
    7.5032    0.7494   -2.4771 H   0  0  0  0  0  0  0  0  0  0  0  0
    9.7970    0.0364   -3.1587 H   0  0  0  0  0  0  0  0  0  0  0  0
   10.5872   -2.2350   -2.6843 H   0  0  0  0  0  0  0  0  0  0  0  0
    9.0253   -3.7967   -1.5028 H   0  0  0  0  0  0  0  0  0  0  0  0
    6.7794   -3.0648   -0.8473 H   0  0  0  0  0  0  0  0  0  0  0  0
   -4.6156    2.3719    3.3116 H   0  0  0  0  0  0  0  0  0  0  0  0
   -5.2051    0.6645    3.0482 H   0  0  0  0  0  0  0  0  0  0  0  0
   -2.7224   -0.8150   -0.1913 H   0  0  0  0  0  0  0  0  0  0  0  0
   -6.3338   -0.3256   -2.3595 H   0  0  0  0  0  0  0  0  0  0  0  0
   -7.1237    1.2943   -0.7735 H   0  0  0  0  0  0  0  0  0  0  0  0
   -1.5273    1.2348    0.0022 H   0  0  0  0  0  0  0  0  0  0  0  0
   -0.7726    2.7708    0.7024 H   0  0  0  0  0  0  0  0  0  0  0  0
   -2.4729    3.0078    2.3133 H   0  0  0  0  0  0  0  0  0  0  0  0
   -3.1960    2.9091    0.6493 H   0  0  0  0  0  0  0  0  0  0  0  0
   -3.4160   -0.1868    3.5140 H   0  0  0  0  0  0  0  0  0  0  0  0
   -2.5487   -0.7497    2.0414 H   0  0  0  0  0  0  0  0  0  0  0  0
   -1.7060    1.7069    3.6603 H   0  0  0  0  0  0  0  0  0  0  0  0
   -0.8928    0.1159    3.7511 H   0  0  0  0  0  0  0  0  0  0  0  0
   -4.3811   -1.4717   -3.3730 H   0  0  0  0  0  0  0  0  0  0  0  0
   -2.8760   -1.6252   -2.4169 H   0  0  0  0  0  0  0  0  0  0  0  0
   -3.6367   -3.4827   -1.4392 H   0  0  0  0  0  0  0  0  0  0  0  0
   -5.2539   -3.0402   -1.4280 H   0  0  0  0  0  0  0  0  0  0  0  0
  1  2  2  0
  3  4  1  0
  4  5  2  0
  5  6  1  0
  6  7  2  0
  3  7  1  0
  8  9  3  0
 10 11  2  0
 11 12  1  0
 12 13  2  0
 13 14  1  0
 14 15  2  0
 10 15  1  0
  9 10  1  0
  7  8  1  0
  1  4  1  0
 16 17  1  0
 17 18  1  0
 18 19  1  0
 19 20  2  0
 16 20  1  0
 21 22  2  0
 22 23  1  0
 23 24  2  0
 20 24  1  0
 19 21  1  0
 25 26  1  0
 26 27  1  0
 28 29  1  0
 25 29  1  0
 18 27  1  0
 18 28  1  0
 30 31  1  0
 22 30  1  0
  1 25  1  0
  5 32  1  0
  6 33  1  0
 11 34  1  0
 12 35  1  0
 13 36  1  0
 14 37  1  0
 15 38  1  0
 17 39  1  0
 17 40  1  0
 21 41  1  0
 23 42  1  0
 24 43  1  0
 26 44  1  0
 26 45  1  0
 27 46  1  0
 27 47  1  0
 28 48  1  0
 28 49  1  0
 29 50  1  0
 29 51  1  0
 30 52  1  0
 30 53  1  0
 31 54  1  0
 31 55  1  0
M  END

