99443546
     RDKit          3D

 53 57  0  0  0  0  0  0  0  0999 V2000
   -1.1936    0.0481   -1.0201 C   0  0  0  0  0  0  0  0  0  0  0  0
   -0.1618   -0.8948   -1.1032 C   0  0  0  0  0  0  0  0  0  0  0  0
    1.1167   -0.4663   -0.7805 C   0  0  0  0  0  0  0  0  0  0  0  0
    1.3669    0.8234   -0.3958 C   0  0  0  0  0  0  0  0  0  0  0  0
    0.3391    1.7413   -0.3187 C   0  0  0  0  0  0  0  0  0  0  0  0
   -0.9488    1.3555   -0.6317 C   0  0  0  0  0  0  0  0  0  0  0  0
    2.3267   -1.1162   -0.7564 C   0  0  0  0  0  0  0  0  0  0  0  0
    3.3469   -0.2296   -0.3536 C   0  0  0  0  0  0  0  0  0  0  0  0
    2.7132    0.9220   -0.1499 N   0  0  0  0  0  0  0  0  0  0  0  0
    4.7480   -0.6209   -0.2294 C   0  0  0  0  0  0  0  0  0  0  0  0
    5.8403    0.1001    0.1411 C   0  0  0  0  0  0  0  0  0  0  0  0
    6.9528   -0.7227    0.1032 C   0  0  0  0  0  0  0  0  0  0  0  0
    6.5180   -1.9376   -0.2917 N   0  0  0  0  0  0  0  0  0  0  0  0
    5.2261   -1.8785   -0.4867 N   0  0  0  0  0  0  0  0  0  0  0  0
    6.0021    1.4161    0.5184 C   0  0  0  0  0  0  0  0  0  0  0  0
    7.2409    1.9670    0.8674 C   0  0  0  0  0  0  0  0  0  0  0  0
    8.3212    1.1077    0.8145 C   0  0  0  0  0  0  0  0  0  0  0  0
    8.1742   -0.2044    0.4406 C   0  0  0  0  0  0  0  0  0  0  0  0
    9.6140    1.6067    1.1585 C   0  0  0  0  0  0  0  0  0  0  0  0
   -2.5773   -0.3573   -1.3586 C   0  0  0  0  0  0  0  0  0  0  0  0
   -3.1835   -1.1057   -0.2831 N   0  0  0  0  0  0  0  0  0  0  0  0
   -3.2816   -0.4065    0.9576 C   0  0  0  0  0  0  0  0  0  0  0  0
   -4.4630   -1.6288   -0.6993 C   0  0  0  0  0  0  0  0  0  0  0  0
   -5.4641   -0.5042   -0.9954 C   0  0  0  0  0  0  0  0  0  0  0  0
   -4.7348   -0.1694    1.3690 C   0  0  0  0  0  0  0  0  0  0  0  0
   -5.5229    0.3817    0.2005 C   0  0  0  0  0  0  0  0  0  0  0  0
   -6.9334    0.6202    0.6915 C   0  0  0  0  0  0  0  0  0  0  0  0
   -7.6090   -0.5794    1.0700 N   0  0  0  0  0  0  0  0  0  0  0  0
   10.6655    2.0241    1.4335 N   0  0  0  0  0  0  0  0  0  0  0  0
   -0.3620   -1.9124   -1.4072 H   0  0  0  0  0  0  0  0  0  0  0  0
    0.5383    2.7563   -0.0156 H   0  0  0  0  0  0  0  0  0  0  0  0
   -1.7923    2.0317   -0.5921 H   0  0  0  0  0  0  0  0  0  0  0  0
    2.5304   -2.1585   -1.0011 H   0  0  0  0  0  0  0  0  0  0  0  0
    3.1252    1.8139    0.1551 H   0  0  0  0  0  0  0  0  0  0  0  0
    7.1734   -2.7481   -0.4009 H   0  0  0  0  0  0  0  0  0  0  0  0
    5.1795    2.1034    0.5675 H   0  0  0  0  0  0  0  0  0  0  0  0
    7.3333    2.9867    1.1544 H   0  0  0  0  0  0  0  0  0  0  0  0
    9.0313   -0.8647    0.4044 H   0  0  0  0  0  0  0  0  0  0  0  0
   -3.2039    0.5018   -1.6699 H   0  0  0  0  0  0  0  0  0  0  0  0
   -2.4878   -1.0698   -2.2225 H   0  0  0  0  0  0  0  0  0  0  0  0
   -2.8536   -1.0331    1.7848 H   0  0  0  0  0  0  0  0  0  0  0  0
   -2.7800    0.5642    1.0048 H   0  0  0  0  0  0  0  0  0  0  0  0
   -4.9001   -2.2256    0.1122 H   0  0  0  0  0  0  0  0  0  0  0  0
   -4.2936   -2.2417   -1.6097 H   0  0  0  0  0  0  0  0  0  0  0  0
   -6.4212   -1.0202   -1.2153 H   0  0  0  0  0  0  0  0  0  0  0  0
   -5.1634    0.0010   -1.9313 H   0  0  0  0  0  0  0  0  0  0  0  0
   -5.1849   -1.0877    1.7811 H   0  0  0  0  0  0  0  0  0  0  0  0
   -4.7098    0.6200    2.1469 H   0  0  0  0  0  0  0  0  0  0  0  0
   -5.0879    1.3629   -0.0763 H   0  0  0  0  0  0  0  0  0  0  0  0
   -7.5335    1.1050   -0.1197 H   0  0  0  0  0  0  0  0  0  0  0  0
   -6.9579    1.3282    1.5438 H   0  0  0  0  0  0  0  0  0  0  0  0
   -8.5693   -0.6640    0.6755 H   0  0  0  0  0  0  0  0  0  0  0  0
   -7.0490   -1.4409    1.0193 H   0  0  0  0  0  0  0  0  0  0  0  0
  1  6  1  0
  1 20  1  0
  1  2  2  0
  2  3  1  0
  3  4  2  0
  3  7  1  0
  4  5  1  0
  4  9  1  0
  5  6  2  0
  7  8  2  0
  8  9  1  0
  8 10  1  0
 10 14  2  0
 10 11  1  0
 11 12  2  0
 11 15  1  0
 12 13  1  0
 12 18  1  0
 13 14  1  0
 15 16  2  0
 16 17  1  0
 17 18  2  0
 17 19  1  0
 19 29  3  0
 20 21  1  0
 21 22  1  0
 21 23  1  0
 22 25  1  0
 23 24  1  0
 24 26  1  0
 25 26  1  0
 26 27  1  0
 27 28  1  0
  2 30  1  0
  5 31  1  0
  6 32  1  0
  7 33  1  0
  9 34  1  0
 13 35  1  0
 15 36  1  0
 16 37  1  0
 18 38  1  0
 20 39  1  0
 20 40  1  0
 22 41  1  0
 22 42  1  0
 23 43  1  0
 23 44  1  0
 24 45  1  0
 24 46  1  0
 25 47  1  0
 25 48  1  0
 26 49  1  0
 27 50  1  0
 27 51  1  0
 28 52  1  0
 28 53  1  0
M  END

