99444689
     RDKit          3D

 43 46  0  0  0  0  0  0  0  0999 V2000
   -0.8634    2.2327   -0.3348 C   0  0  0  0  0  0  0  0  0  0  0  0
    5.3563    0.7901   -0.8513 C   0  0  0  0  0  0  0  0  0  0  0  0
   -2.2231    2.1518   -0.5530 C   0  0  0  0  0  0  0  0  0  0  0  0
   -0.0410    1.1141   -0.3128 C   0  0  0  0  0  0  0  0  0  0  0  0
    4.8264   -0.4801   -0.9323 C   0  0  0  0  0  0  0  0  0  0  0  0
    5.0973    1.5056    0.3028 C   0  0  0  0  0  0  0  0  0  0  0  0
   -0.4747   -2.6267   -0.7321 C   0  0  0  0  0  0  0  0  0  0  0  0
    0.4203   -3.7811   -0.7021 C   0  0  0  0  0  0  0  0  0  0  0  0
   -1.9640   -0.2057   -0.7348 C   0  0  0  0  0  0  0  0  0  0  0  0
    3.8322   -0.2554    1.2447 C   0  0  0  0  0  0  0  0  0  0  0  0
   -4.2405    0.7171   -1.0005 C   0  0  0  0  0  0  0  0  0  0  0  0
   -6.0094   -0.3949    1.8918 C   0  0  0  0  0  0  0  0  0  0  0  0
   -5.5603    1.4842    0.9393 C   0  0  0  0  0  0  0  0  0  0  0  0
   -2.7856    0.8964   -0.7583 C   0  0  0  0  0  0  0  0  0  0  0  0
   -0.6093   -0.1344   -0.5183 C   0  0  0  0  0  0  0  0  0  0  0  0
    4.0679   -0.9835    0.1259 C   0  0  0  0  0  0  0  0  0  0  0  0
    4.3495    1.0140    1.3502 C   0  0  0  0  0  0  0  0  0  0  0  0
    0.2258   -1.3638   -0.5048 C   0  0  0  0  0  0  0  0  0  0  0  0
    2.3262   -2.4456   -0.2814 C   0  0  0  0  0  0  0  0  0  0  0  0
   -6.1929    0.9308    1.9948 N   0  0  0  0  0  0  0  0  0  0  0  0
    1.6710   -3.6807   -0.4990 N   0  0  0  0  0  0  0  0  0  0  0  0
   -5.2717   -0.6164    0.7792 N   0  0  0  0  0  0  0  0  0  0  0  0
    3.5727   -2.3114   -0.0758 N   0  0  0  0  0  0  0  0  0  0  0  0
    1.4828   -1.3037   -0.3045 N   0  0  0  0  0  0  0  0  0  0  0  0
   -4.9920    0.5283    0.1895 N   0  0  0  0  0  0  0  0  0  0  0  0
    4.1133    1.7987    2.5206 N   0  0  0  0  0  4  0  0  0  0  0  0
    4.6333    3.0613    2.6145 O   0  0  0  0  0  1  0  0  0  0  0  0
    3.4328    1.3239    3.4495 O   0  0  0  0  0  0  0  0  0  0  0  0
   -0.3875    3.1890   -0.1711 H   0  0  0  0  0  0  0  0  0  0  0  0
    5.9530    1.2073   -1.6649 H   0  0  0  0  0  0  0  0  0  0  0  0
   -2.8368    3.0403   -0.5643 H   0  0  0  0  0  0  0  0  0  0  0  0
    1.0150    1.1929   -0.1418 H   0  0  0  0  0  0  0  0  0  0  0  0
    5.0164   -1.0621   -1.8299 H   0  0  0  0  0  0  0  0  0  0  0  0
    5.5130    2.5179    0.3804 H   0  0  0  0  0  0  0  0  0  0  0  0
   -1.3229   -2.7572    0.0143 H   0  0  0  0  0  0  0  0  0  0  0  0
   -1.0481   -2.5916   -1.7250 H   0  0  0  0  0  0  0  0  0  0  0  0
   -0.0636   -4.7681   -0.8699 H   0  0  0  0  0  0  0  0  0  0  0  0
   -2.4162   -1.1858   -0.8971 H   0  0  0  0  0  0  0  0  0  0  0  0
    3.2376   -0.6957    2.0336 H   0  0  0  0  0  0  0  0  0  0  0  0
   -4.5644    1.6257   -1.5892 H   0  0  0  0  0  0  0  0  0  0  0  0
   -4.3577   -0.1279   -1.7345 H   0  0  0  0  0  0  0  0  0  0  0  0
   -6.4076   -1.1023    2.6053 H   0  0  0  0  0  0  0  0  0  0  0  0
   -5.5105    2.5517    0.7163 H   0  0  0  0  0  0  0  0  0  0  0  0
  1  3  2  0
  1  4  1  0
  2  5  2  0
  2  6  1  0
  7  8  1  0
  3 14  1  0
  9 14  2  0
 11 14  1  0
  4 15  2  0
  9 15  1  0
  5 16  1  0
 10 16  2  0
  6 17  2  0
 10 17  1  0
  7 18  1  0
 15 18  1  0
 12 20  1  0
 13 20  2  0
  8 21  2  0
 19 21  1  0
 12 22  2  0
 16 23  1  0
 19 23  2  0
 18 24  2  0
 19 24  1  0
 11 25  1  0
 13 25  1  0
 22 25  1  0
 17 26  1  0
 26 27  1  0
 26 28  2  0
  1 29  1  0
  2 30  1  0
  3 31  1  0
  4 32  1  0
  5 33  1  0
  6 34  1  0
  7 35  1  0
  7 36  1  0
  8 37  1  0
  9 38  1  0
 10 39  1  0
 11 40  1  0
 11 41  1  0
 12 42  1  0
 13 43  1  0
M  CHG  2  26   1  27  -1
M  END

