99443582
     RDKit          3D

 57 56  0  0  1  0  0  0  0  0999 V2000
    9.6191    0.9216    0.1001 O   0  0  0  0  0  0  0  0  0  0  0  0
    8.8831    3.0339    0.2792 O   0  0  0  0  0  0  0  0  0  0  0  0
    8.6390    1.8567   -0.1195 C   0  0  0  0  0  0  0  0  0  0  0  0
    7.3427    1.6358   -0.7658 C   0  0  0  0  0  0  0  0  0  0  0  0
    7.0854    0.2278   -1.2040 C   0  0  0  0  0  0  0  0  0  0  0  0
    7.1060   -0.7775   -0.0663 C   0  0  1  0  0  0  0  0  0  0  0  0
    6.0798   -0.4682    0.9496 C   0  0  0  0  0  0  0  0  0  0  0  0
    4.7736   -0.4708    0.6494 C   0  0  0  0  0  0  0  0  0  0  0  0
    3.8626   -0.1564    1.7116 C   0  0  0  0  0  0  0  0  0  0  0  0
    2.5595   -0.1135    1.5967 C   0  0  0  0  0  0  0  0  0  0  0  0
    1.9439   -0.4105    0.2652 C   0  0  0  0  0  0  0  0  0  0  0  0
    1.1497    0.7356   -0.2183 C   0  0  0  0  0  0  0  0  0  0  0  0
   -0.1278    0.6401   -0.4672 C   0  0  0  0  0  0  0  0  0  0  0  0
   -0.8915   -0.6180   -0.2874 C   0  0  0  0  0  0  0  0  0  0  0  0
   -1.9584   -0.2989    0.7029 C   0  0  0  0  0  0  0  0  0  0  0  0
   -3.2299   -0.3937    0.5245 C   0  0  0  0  0  0  0  0  0  0  0  0
   -3.7640   -0.8692   -0.7923 C   0  0  0  0  0  0  0  0  0  0  0  0
   -4.6089    0.2227   -1.3342 C   0  0  0  0  0  0  0  0  0  0  0  0
   -5.8812    0.0570   -1.6295 C   0  0  0  0  0  0  0  0  0  0  0  0
   -6.5629   -1.2112   -1.4541 C   0  0  0  0  0  0  0  0  0  0  0  0
   -7.6444   -1.3632   -0.4922 C   0  0  0  0  0  0  0  0  0  0  0  0
   -8.1126   -0.5191    0.3512 C   0  0  0  0  0  0  0  0  0  0  0  0
   -7.6889    0.8474    0.5950 C   0  0  0  0  0  0  0  0  0  0  0  0
   -7.2277    1.0176    2.0635 C   0  0  0  0  0  0  0  0  0  0  0  0
    6.8072   -2.0231   -0.6487 O   0  0  0  0  0  0  0  0  0  0  0  0
   10.0191    0.8659    1.0492 H   0  0  0  0  0  0  0  0  0  0  0  0
    7.3154    2.2633   -1.6845 H   0  0  0  0  0  0  0  0  0  0  0  0
    6.4856    1.9927   -0.1440 H   0  0  0  0  0  0  0  0  0  0  0  0
    7.7717   -0.0497   -2.0091 H   0  0  0  0  0  0  0  0  0  0  0  0
    6.0608    0.1953   -1.6253 H   0  0  0  0  0  0  0  0  0  0  0  0
    8.0934   -0.8047    0.4323 H   0  0  0  0  0  0  0  0  0  0  0  0
    6.3787   -0.2350    1.9525 H   0  0  0  0  0  0  0  0  0  0  0  0
    4.5387   -0.7136   -0.3760 H   0  0  0  0  0  0  0  0  0  0  0  0
    4.2438    0.0749    2.7240 H   0  0  0  0  0  0  0  0  0  0  0  0
    1.9067    0.1346    2.4515 H   0  0  0  0  0  0  0  0  0  0  0  0
    2.7369   -0.6227   -0.5100 H   0  0  0  0  0  0  0  0  0  0  0  0
    1.3994   -1.3531    0.3414 H   0  0  0  0  0  0  0  0  0  0  0  0
    1.6742    1.7030   -0.3694 H   0  0  0  0  0  0  0  0  0  0  0  0
   -0.6661    1.5078   -0.8206 H   0  0  0  0  0  0  0  0  0  0  0  0
   -0.3140   -1.4718    0.1113 H   0  0  0  0  0  0  0  0  0  0  0  0
   -1.2218   -0.9287   -1.2768 H   0  0  0  0  0  0  0  0  0  0  0  0
   -1.5803    0.0523    1.6790 H   0  0  0  0  0  0  0  0  0  0  0  0
   -3.9370   -0.1392    1.3012 H   0  0  0  0  0  0  0  0  0  0  0  0
   -2.9318   -1.1009   -1.4589 H   0  0  0  0  0  0  0  0  0  0  0  0
   -4.3602   -1.7849   -0.5508 H   0  0  0  0  0  0  0  0  0  0  0  0
   -4.1624    1.2283   -1.5026 H   0  0  0  0  0  0  0  0  0  0  0  0
   -6.4331    0.9390   -2.0881 H   0  0  0  0  0  0  0  0  0  0  0  0
   -7.0311   -1.5005   -2.5099 H   0  0  0  0  0  0  0  0  0  0  0  0
   -5.8851   -2.1089   -1.3572 H   0  0  0  0  0  0  0  0  0  0  0  0
   -8.1655   -2.3939   -0.4790 H   0  0  0  0  0  0  0  0  0  0  0  0
   -8.9809   -0.8532    1.0197 H   0  0  0  0  0  0  0  0  0  0  0  0
   -8.6575    1.4682    0.5960 H   0  0  0  0  0  0  0  0  0  0  0  0
   -7.0409    1.3662   -0.0690 H   0  0  0  0  0  0  0  0  0  0  0  0
   -8.0870    1.0976    2.7431 H   0  0  0  0  0  0  0  0  0  0  0  0
   -6.6745    0.0823    2.3143 H   0  0  0  0  0  0  0  0  0  0  0  0
   -6.5071    1.8502    2.1496 H   0  0  0  0  0  0  0  0  0  0  0  0
    5.8583   -2.2636   -0.5258 H   0  0  0  0  0  0  0  0  0  0  0  0
  1  3  1  0
  2  3  2  0
  3  4  1  0
  4  5  1  0
  5  6  1  0
  6  7  1  0
  6 25  1  0
  7  8  2  0
  8  9  1  0
  9 10  2  0
 10 11  1  0
 11 12  1  0
 12 13  2  0
 13 14  1  0
 14 15  1  0
 15 16  2  0
 16 17  1  0
 17 18  1  0
 18 19  2  0
 19 20  1  0
 20 21  1  0
 21 22  2  0
 22 23  1  0
 23 24  1  0
  1 26  1  0
  4 27  1  0
  4 28  1  0
  5 29  1  0
  5 30  1  0
  6 31  1  1
  7 32  1  0
  8 33  1  0
  9 34  1  0
 10 35  1  0
 11 36  1  0
 11 37  1  0
 12 38  1  0
 13 39  1  0
 14 40  1  0
 14 41  1  0
 15 42  1  0
 16 43  1  0
 17 44  1  0
 17 45  1  0
 18 46  1  0
 19 47  1  0
 20 48  1  0
 20 49  1  0
 21 50  1  0
 22 51  1  0
 23 52  1  0
 23 53  1  0
 24 54  1  0
 24 55  1  0
 24 56  1  0
 25 57  1  0
M  END

