99444908
     RDKit          3D

 63 66  0  0  1  0  0  0  0  0999 V2000
    3.3327    0.7977    2.4632 N   0  0  0  0  0  0  0  0  0  0  0  0
    2.9471    0.6093    1.0950 C   0  0  1  0  0  0  0  0  0  0  0  0
    3.8198   -0.4605    0.4768 C   0  0  0  0  0  0  0  0  0  0  0  0
    5.2520   -0.0921    0.5119 C   0  0  0  0  0  0  0  0  0  0  0  0
    6.0882   -0.4187    1.5573 C   0  0  0  0  0  0  0  0  0  0  0  0
    5.7728    0.6107   -0.5500 C   0  0  0  0  0  0  0  0  0  0  0  0
    7.4236   -0.0365    1.5188 C   0  0  0  0  0  0  0  0  0  0  0  0
    7.1060    0.9944   -0.5927 C   0  0  0  0  0  0  0  0  0  0  0  0
    7.9442    0.6683    0.4531 C   0  0  0  0  0  0  0  0  0  0  0  0
    0.7943    0.1745    2.0550 O   0  0  0  0  0  0  0  0  0  0  0  0
    9.2803    1.0648    0.3887 O   0  0  0  0  0  0  0  0  0  0  0  0
   10.1157    0.7161    1.4767 C   0  0  0  0  0  0  0  0  0  0  0  0
    1.5127    0.2605    1.0149 C   0  0  0  0  0  0  0  0  0  0  0  0
   -0.9364   -2.9068    0.9075 O   0  0  0  0  0  0  0  0  0  0  0  0
   -0.2209   -2.8362   -0.2653 C   0  0  0  0  0  0  0  0  0  0  0  0
   -0.6019   -1.6454   -1.1134 C   0  0  1  0  0  0  0  0  0  0  0  0
   -1.9399   -1.6682   -1.4752 O   0  0  0  0  0  0  0  0  0  0  0  0
   -2.2171   -0.4121   -1.9595 C   0  0  1  0  0  0  0  0  0  0  0  0
   -3.6210   -0.0991   -1.7017 N   0  0  0  0  0  0  0  0  0  0  0  0
   -4.4475   -0.7154   -0.8390 C   0  0  0  0  0  0  0  0  0  0  0  0
   -4.2884   -1.7516    0.0199 N   0  0  0  0  0  0  0  0  0  0  0  0
   -5.2880   -2.1961    0.7961 C   0  0  0  0  0  0  0  0  0  0  0  0
   -6.4816   -1.5872    0.7112 N   0  0  0  0  0  0  0  0  0  0  0  0
   -6.7374   -0.5541   -0.1079 C   0  0  0  0  0  0  0  0  0  0  0  0
   -8.0149    0.0499   -0.1559 N   0  0  0  0  0  0  0  0  0  0  0  0
   -9.0543   -0.4678    0.7053 C   0  0  0  0  0  0  0  0  0  0  0  0
   -8.3050    1.1603   -1.0347 C   0  0  0  0  0  0  0  0  0  0  0  0
   -5.6794   -0.1103   -0.9057 C   0  0  0  0  0  0  0  0  0  0  0  0
   -5.6003    0.8726   -1.8083 N   0  0  0  0  0  0  0  0  0  0  0  0
   -4.3371    0.8821   -2.2991 C   0  0  0  0  0  0  0  0  0  0  0  0
   -1.2963    0.5754   -1.2886 C   0  0  2  0  0  0  0  0  0  0  0  0
   -0.4059    1.0474   -2.2803 O   0  0  0  0  0  0  0  0  0  0  0  0
   -0.5243   -0.3377   -0.3364 C   0  0  2  0  0  0  0  0  0  0  0  0
    0.8563    0.0016   -0.2268 N   0  0  0  0  0  0  0  0  0  0  0  0
    3.4657    1.8064    2.7203 H   0  0  0  0  0  0  0  0  0  0  0  0
    2.6941    0.3078    3.1262 H   0  0  0  0  0  0  0  0  0  0  0  0
    3.1020    1.5297    0.5019 H   0  0  0  0  0  0  0  0  0  0  0  0
    3.7204   -1.4146    1.0558 H   0  0  0  0  0  0  0  0  0  0  0  0
    3.5054   -0.5846   -0.5738 H   0  0  0  0  0  0  0  0  0  0  0  0
    5.7213   -0.9727    2.4164 H   0  0  0  0  0  0  0  0  0  0  0  0
    5.1662    0.8962   -1.3995 H   0  0  0  0  0  0  0  0  0  0  0  0
    8.1049   -0.2782    2.3256 H   0  0  0  0  0  0  0  0  0  0  0  0
    7.5191    1.5461   -1.4251 H   0  0  0  0  0  0  0  0  0  0  0  0
   10.2883   -0.3940    1.5079 H   0  0  0  0  0  0  0  0  0  0  0  0
   11.1140    1.2074    1.3612 H   0  0  0  0  0  0  0  0  0  0  0  0
    9.6186    1.0838    2.3986 H   0  0  0  0  0  0  0  0  0  0  0  0
   -0.7634   -2.1776    1.5402 H   0  0  0  0  0  0  0  0  0  0  0  0
    0.8779   -2.8603   -0.1143 H   0  0  0  0  0  0  0  0  0  0  0  0
   -0.4689   -3.7401   -0.8637 H   0  0  0  0  0  0  0  0  0  0  0  0
    0.0943   -1.5484   -1.9596 H   0  0  0  0  0  0  0  0  0  0  0  0
   -2.0515   -0.4525   -3.0754 H   0  0  0  0  0  0  0  0  0  0  0  0
   -5.1926   -3.0213    1.4916 H   0  0  0  0  0  0  0  0  0  0  0  0
   -9.1153    0.0797    1.6676 H   0  0  0  0  0  0  0  0  0  0  0  0
   -8.8278   -1.5308    0.9240 H   0  0  0  0  0  0  0  0  0  0  0  0
  -10.0499   -0.4774    0.1977 H   0  0  0  0  0  0  0  0  0  0  0  0
   -7.5252    1.9516   -0.9268 H   0  0  0  0  0  0  0  0  0  0  0  0
   -8.3998    0.8069   -2.0869 H   0  0  0  0  0  0  0  0  0  0  0  0
   -9.2613    1.6611   -0.7753 H   0  0  0  0  0  0  0  0  0  0  0  0
   -3.9127    1.5438   -3.0494 H   0  0  0  0  0  0  0  0  0  0  0  0
   -1.8052    1.3877   -0.7708 H   0  0  0  0  0  0  0  0  0  0  0  0
   -0.2242    0.3341   -2.9427 H   0  0  0  0  0  0  0  0  0  0  0  0
   -1.0630   -0.3875    0.6117 H   0  0  0  0  0  0  0  0  0  0  0  0
    1.4204    0.0655   -1.0941 H   0  0  0  0  0  0  0  0  0  0  0  0
  2  1  1  0
  2  3  1  0
  2 13  1  0
  3  4  1  0
  4  5  2  0
  4  6  1  0
  5  7  1  0
  6  8  2  0
  7  9  2  0
  8  9  1  0
  9 11  1  0
 10 13  2  0
 11 12  1  0
 13 34  1  0
 14 15  1  0
 16 15  1  0
 16 17  1  0
 16 33  1  0
 17 18  1  0
 18 19  1  0
 18 31  1  0
 19 20  1  0
 19 30  1  0
 20 21  2  0
 20 28  1  0
 21 22  1  0
 22 23  2  0
 23 24  1  0
 24 25  1  0
 24 28  2  0
 25 26  1  0
 25 27  1  0
 28 29  1  0
 29 30  2  0
 31 32  1  0
 31 33  1  0
 33 34  1  0
  1 35  1  0
  1 36  1  0
  2 37  1  6
  3 38  1  0
  3 39  1  0
  5 40  1  0
  6 41  1  0
  7 42  1  0
  8 43  1  0
 12 44  1  0
 12 45  1  0
 12 46  1  0
 14 47  1  0
 15 48  1  0
 15 49  1  0
 16 50  1  6
 18 51  1  6
 22 52  1  0
 26 53  1  0
 26 54  1  0
 26 55  1  0
 27 56  1  0
 27 57  1  0
 27 58  1  0
 30 59  1  0
 31 60  1  1
 32 61  1  0
 33 62  1  1
 34 63  1  0
M  END

