99443802
     RDKit          3D

 20 20  0  0  0  0  0  0  0  0999 V2000
    0.3881   -1.3570   -0.2994 C   0  0  0  0  0  0  0  0  0  0  0  0
    1.7476   -1.0910   -0.1737 C   0  0  0  0  0  0  0  0  0  0  0  0
   -0.5690   -0.3658   -0.2139 C   0  0  0  0  0  0  0  0  0  0  0  0
   -0.1493    0.9328   -0.0015 C   0  0  0  0  0  0  0  0  0  0  0  0
    1.1988    1.2185    0.1260 C   0  0  0  0  0  0  0  0  0  0  0  0
    2.1443    0.2293    0.0429 C   0  0  0  0  0  0  0  0  0  0  0  0
   -2.9081    0.3323   -0.1542 C   0  0  0  0  0  0  0  0  0  0  0  0
   -3.1398    0.7026    1.0376 O   0  0  0  0  0  0  0  0  0  0  0  0
   -3.5640    1.0070   -1.1645 O   0  0  0  0  0  0  0  0  0  0  0  0
   -1.9765   -0.7729   -0.4085 C   0  0  0  0  0  0  0  0  0  0  0  0
    3.5449    0.5105    0.1496 N   0  0  0  0  0  4  0  0  0  0  0  0
    3.9137    1.6842    0.3507 O   0  0  0  0  0  0  0  0  0  0  0  0
    4.4669   -0.4954    0.0388 O   0  0  0  0  0  1  0  0  0  0  0  0
    0.1337   -2.4059   -0.4717 H   0  0  0  0  0  0  0  0  0  0  0  0
    2.5195   -1.8379   -0.2292 H   0  0  0  0  0  0  0  0  0  0  0  0
   -0.9118    1.7228    0.0652 H   0  0  0  0  0  0  0  0  0  0  0  0
    1.5089    2.2237    0.2766 H   0  0  0  0  0  0  0  0  0  0  0  0
   -4.1131    0.6223   -1.8987 H   0  0  0  0  0  0  0  0  0  0  0  0
   -2.0739   -1.2302   -1.4096 H   0  0  0  0  0  0  0  0  0  0  0  0
   -2.1608   -1.6298    0.3163 H   0  0  0  0  0  0  0  0  0  0  0  0
  1  2  2  0
  1  3  1  0
  3 10  1  0
  3  4  2  0
  4  5  1  0
  5  6  2  0
  2  6  1  0
  7  8  2  0
  7  9  1  0
  7 10  1  0
  6 11  1  0
 11 12  2  0
 11 13  1  0
  1 14  1  0
  2 15  1  0
  4 16  1  0
  5 17  1  0
  9 18  1  0
 10 19  1  0
 10 20  1  0
M  CHG  2  11   1  13  -1
M  END

