99444424
     RDKit          3D

 38 39  0  0  1  0  0  0  0  0999 V2000
   -0.0822   -1.3333   -0.7929 O   0  0  0  0  0  0  0  0  0  0  0  0
   -0.1356   -0.8955    0.3649 C   0  0  0  0  0  0  0  0  0  0  0  0
   -1.2337   -0.1325    0.8032 N   0  0  0  0  0  0  0  0  0  0  0  0
   -2.3182    0.1118   -0.1581 C   0  0  2  0  0  0  0  0  0  0  0  0
   -2.0142    1.4355   -0.7608 C   0  0  0  0  0  0  0  0  0  0  0  0
   -1.0298    2.1122   -0.3493 O   0  0  0  0  0  0  0  0  0  0  0  0
   -2.7769    1.9584   -1.7661 O   0  0  0  0  0  0  0  0  0  0  0  0
   -3.6485    0.0845    0.5160 C   0  0  0  0  0  0  0  0  0  0  0  0
   -3.8177   -1.3071    1.1443 C   0  0  0  0  0  0  0  0  0  0  0  0
   -4.7329    0.3348   -0.5074 C   0  0  0  0  0  0  0  0  0  0  0  0
    0.9679   -1.1701    1.3107 C   0  0  0  0  0  0  0  0  0  0  0  0
    2.0644   -0.2405    0.9585 C   0  0  0  0  0  0  0  0  0  0  0  0
    2.2656    0.9490    1.6632 C   0  0  0  0  0  0  0  0  0  0  0  0
    3.2965    1.5882    1.1041 N   0  0  0  0  0  0  0  0  0  0  0  0
    3.7463    0.8335    0.0707 C   0  0  0  0  0  0  0  0  0  0  0  0
    4.8005    1.0498   -0.8274 C   0  0  0  0  0  0  0  0  0  0  0  0
    3.0041   -0.3035   -0.0445 C   0  0  0  0  0  0  0  0  0  0  0  0
    3.2366   -1.2690   -1.0105 C   0  0  0  0  0  0  0  0  0  0  0  0
    4.2905   -1.0337   -1.8919 C   0  0  0  0  0  0  0  0  0  0  0  0
    5.0546    0.1084   -1.7963 C   0  0  0  0  0  0  0  0  0  0  0  0
   -1.2969    0.2582    1.7705 H   0  0  0  0  0  0  0  0  0  0  0  0
   -2.2769   -0.6782   -0.9450 H   0  0  0  0  0  0  0  0  0  0  0  0
   -3.0569    1.3812   -2.5560 H   0  0  0  0  0  0  0  0  0  0  0  0
   -3.6956    0.8300    1.3481 H   0  0  0  0  0  0  0  0  0  0  0  0
   -3.8629   -2.0651    0.3399 H   0  0  0  0  0  0  0  0  0  0  0  0
   -2.8809   -1.4686    1.7369 H   0  0  0  0  0  0  0  0  0  0  0  0
   -4.6843   -1.3172    1.8056 H   0  0  0  0  0  0  0  0  0  0  0  0
   -4.4929   -0.1765   -1.4367 H   0  0  0  0  0  0  0  0  0  0  0  0
   -4.7265    1.4533   -0.6815 H   0  0  0  0  0  0  0  0  0  0  0  0
   -5.7444    0.1012   -0.0967 H   0  0  0  0  0  0  0  0  0  0  0  0
    0.7173   -1.0531    2.3646 H   0  0  0  0  0  0  0  0  0  0  0  0
    1.3360   -2.2361    1.1795 H   0  0  0  0  0  0  0  0  0  0  0  0
    1.6847    1.2782    2.5021 H   0  0  0  0  0  0  0  0  0  0  0  0
    3.6513    2.5043    1.4410 H   0  0  0  0  0  0  0  0  0  0  0  0
    5.3841    1.9463   -0.7378 H   0  0  0  0  0  0  0  0  0  0  0  0
    2.6193   -2.1537   -1.0604 H   0  0  0  0  0  0  0  0  0  0  0  0
    4.5273   -1.7423   -2.6642 H   0  0  0  0  0  0  0  0  0  0  0  0
    5.8609    0.2570   -2.4970 H   0  0  0  0  0  0  0  0  0  0  0  0
  1  2  2  0
  2  3  1  0
  2 11  1  0
  4  3  1  0
  4  5  1  0
  4  8  1  0
  5  6  2  0
  5  7  1  0
  8  9  1  0
  8 10  1  0
 11 12  1  0
 12 13  2  0
 12 17  1  0
 13 14  1  0
 14 15  1  0
 15 16  1  0
 15 17  2  0
 16 20  2  0
 17 18  1  0
 18 19  2  0
 19 20  1  0
  3 21  1  0
  4 22  1  6
  7 23  1  0
  8 24  1  0
  9 25  1  0
  9 26  1  0
  9 27  1  0
 10 28  1  0
 10 29  1  0
 10 30  1  0
 11 31  1  0
 11 32  1  0
 13 33  1  0
 14 34  1  0
 16 35  1  0
 18 36  1  0
 19 37  1  0
 20 38  1  0
M  END

