99445068
     RDKit          3D

 55 59  0  0  0  0  0  0  0  0999 V2000
    6.4406    0.1568   -1.2147 C   0  0  0  0  0  0  0  0  0  0  0  0
    7.6312    0.9758   -1.5957 C   0  0  0  0  0  0  0  0  0  0  0  0
    8.2620    1.7356   -0.4705 C   0  0  0  0  0  0  0  0  0  0  0  0
    7.1284    2.2697    0.3945 C   0  0  0  0  0  0  0  0  0  0  0  0
    6.3132    1.1455    0.9839 C   0  0  0  0  0  0  0  0  0  0  0  0
    6.2756   -0.0251    0.1910 N   0  0  0  0  0  0  0  0  0  0  0  0
    5.1894   -0.8802    0.5106 C   0  0  0  0  0  0  0  0  0  0  0  0
    3.8206   -0.3319    0.2006 C   0  0  0  0  0  0  0  0  0  0  0  0
    2.8923   -1.3268    0.5874 O   0  0  0  0  0  0  0  0  0  0  0  0
    1.5351   -1.2303    0.4756 C   0  0  0  0  0  0  0  0  0  0  0  0
    0.7217   -2.2544    0.8802 C   0  0  0  0  0  0  0  0  0  0  0  0
   -0.6711   -2.1734    0.7734 C   0  0  0  0  0  0  0  0  0  0  0  0
    0.9653   -0.0973   -0.0474 C   0  0  0  0  0  0  0  0  0  0  0  0
   -0.4266   -0.0023   -0.1602 C   0  0  0  0  0  0  0  0  0  0  0  0
   -1.2463   -1.0290    0.2452 C   0  0  0  0  0  0  0  0  0  0  0  0
   -2.6825   -0.9073    0.1178 C   0  0  0  0  0  0  0  0  0  0  0  0
   -3.4378   -2.0231   -0.1212 C   0  0  0  0  0  0  0  0  0  0  0  0
   -3.2835    0.3125    0.2349 C   0  0  0  0  0  0  0  0  0  0  0  0
   -4.6173    0.3725    0.1090 N   0  0  0  0  0  0  0  0  0  0  0  0
   -5.3869   -0.6973   -0.1248 C   0  0  0  0  0  0  0  0  0  0  0  0
   -4.7688   -1.8995   -0.2377 N   0  0  0  0  0  0  0  0  0  0  0  0
   -5.7084   -2.7774   -0.4606 N   0  0  0  0  0  0  0  0  0  0  0  0
   -6.9290   -2.2145   -0.5017 C   0  0  0  0  0  0  0  0  0  0  0  0
   -6.7472   -0.8531   -0.2848 C   0  0  0  0  0  0  0  0  0  0  0  0
   -7.7940    0.1604   -0.2424 C   0  0  0  0  0  0  0  0  0  0  0  0
   -8.9704   -0.0553    0.4635 C   0  0  0  0  0  0  0  0  0  0  0  0
   -9.9199    0.9375    0.4660 C   0  0  0  0  0  0  0  0  0  0  0  0
   -9.7286    2.1020   -0.1979 N   0  0  0  0  0  0  0  0  0  0  0  0
   -8.6083    2.3381   -0.8850 C   0  0  0  0  0  0  0  0  0  0  0  0
   -7.6431    1.3611   -0.9031 C   0  0  0  0  0  0  0  0  0  0  0  0
    6.5514   -0.8453   -1.6813 H   0  0  0  0  0  0  0  0  0  0  0  0
    5.5451    0.6109   -1.7076 H   0  0  0  0  0  0  0  0  0  0  0  0
    8.4454    0.3441   -2.0493 H   0  0  0  0  0  0  0  0  0  0  0  0
    7.3797    1.7143   -2.4024 H   0  0  0  0  0  0  0  0  0  0  0  0
    8.7747    2.6258   -0.8903 H   0  0  0  0  0  0  0  0  0  0  0  0
    8.9736    1.1205    0.1226 H   0  0  0  0  0  0  0  0  0  0  0  0
    6.5030    2.8954   -0.2763 H   0  0  0  0  0  0  0  0  0  0  0  0
    7.5820    2.9295    1.1419 H   0  0  0  0  0  0  0  0  0  0  0  0
    5.3339    1.5576    1.2836 H   0  0  0  0  0  0  0  0  0  0  0  0
    6.8218    0.8788    1.9589 H   0  0  0  0  0  0  0  0  0  0  0  0
    5.2083   -1.0454    1.6262 H   0  0  0  0  0  0  0  0  0  0  0  0
    5.2573   -1.8861    0.0664 H   0  0  0  0  0  0  0  0  0  0  0  0
    3.6598   -0.1171   -0.8576 H   0  0  0  0  0  0  0  0  0  0  0  0
    3.5772    0.5799    0.7706 H   0  0  0  0  0  0  0  0  0  0  0  0
    1.1067   -3.1702    1.2990 H   0  0  0  0  0  0  0  0  0  0  0  0
   -1.3095   -2.9850    1.0942 H   0  0  0  0  0  0  0  0  0  0  0  0
    1.5898    0.7220   -0.3726 H   0  0  0  0  0  0  0  0  0  0  0  0
   -0.8923    0.8842   -0.5707 H   0  0  0  0  0  0  0  0  0  0  0  0
   -2.9407   -2.9734   -0.2092 H   0  0  0  0  0  0  0  0  0  0  0  0
   -2.6956    1.1916    0.4225 H   0  0  0  0  0  0  0  0  0  0  0  0
   -7.8716   -2.7281   -0.6717 H   0  0  0  0  0  0  0  0  0  0  0  0
   -9.1216   -0.9733    0.9867 H   0  0  0  0  0  0  0  0  0  0  0  0
  -10.8274    0.7351    1.0281 H   0  0  0  0  0  0  0  0  0  0  0  0
   -8.5117    3.2820   -1.3939 H   0  0  0  0  0  0  0  0  0  0  0  0
   -6.7449    1.5629   -1.4601 H   0  0  0  0  0  0  0  0  0  0  0  0
  1  2  1  0
  1  6  1  0
  2  3  1  0
  3  4  1  0
  4  5  1  0
  5  6  1  0
  6  7  1  0
  7  8  1  0
  8  9  1  0
  9 10  1  0
 10 11  2  0
 10 13  1  0
 11 12  1  0
 12 15  2  0
 13 14  2  0
 14 15  1  0
 15 16  1  0
 16 17  2  0
 16 18  1  0
 17 21  1  0
 18 19  2  0
 19 20  1  0
 20 21  1  0
 20 24  2  0
 21 22  1  0
 22 23  2  0
 23 24  1  0
 24 25  1  0
 25 26  2  0
 25 30  1  0
 26 27  1  0
 27 28  2  0
 28 29  1  0
 29 30  2  0
  1 31  1  0
  1 32  1  0
  2 33  1  0
  2 34  1  0
  3 35  1  0
  3 36  1  0
  4 37  1  0
  4 38  1  0
  5 39  1  0
  5 40  1  0
  7 41  1  0
  7 42  1  0
  8 43  1  0
  8 44  1  0
 11 45  1  0
 12 46  1  0
 13 47  1  0
 14 48  1  0
 17 49  1  0
 18 50  1  0
 23 51  1  0
 26 52  1  0
 27 53  1  0
 29 54  1  0
 30 55  1  0
M  END

