99444705
     RDKit          3D

 43 44  0  0  0  0  0  0  0  0999 V2000
    2.6725    0.9961   -1.8085 C   0  0  0  0  0  0  0  0  0  0  0  0
    3.4624   -0.2719   -1.5086 C   0  0  0  0  0  0  0  0  0  0  0  0
    3.7443   -0.2336   -0.0522 C   0  0  0  0  0  0  0  0  0  0  0  0
    4.9626    0.0824    0.4174 N   0  0  0  0  0  0  0  0  0  0  0  0
    5.1848    0.1095    1.7507 C   0  0  0  0  0  0  0  0  0  0  0  0
    6.4753    0.4300    2.2742 N   0  0  0  0  0  0  0  0  0  0  0  0
    4.2025   -0.1771    2.6247 N   0  0  0  0  0  0  0  0  0  0  0  0
    2.9629   -0.5008    2.2188 C   0  0  0  0  0  0  0  0  0  0  0  0
    1.9320   -0.7996    3.1412 N   0  0  0  0  0  0  0  0  0  0  0  0
    2.7544   -0.5227    0.8439 C   0  0  0  0  0  0  0  0  0  0  0  0
    1.4558   -0.8845    0.3120 C   0  0  0  0  0  0  0  0  0  0  0  0
    0.3814   -1.2178   -0.1449 C   0  0  0  0  0  0  0  0  0  0  0  0
   -0.8922   -1.6568   -0.7048 C   0  0  0  0  0  0  0  0  0  0  0  0
   -1.9446   -0.6536   -0.5224 C   0  0  0  0  0  0  0  0  0  0  0  0
   -1.6937    0.6959   -0.2497 C   0  0  0  0  0  0  0  0  0  0  0  0
   -2.7088    1.5994   -0.0913 C   0  0  0  0  0  0  0  0  0  0  0  0
   -2.4126    2.9267    0.1748 O   0  0  0  0  0  0  0  0  0  0  0  0
   -3.5017    3.8348    0.3392 C   0  0  0  0  0  0  0  0  0  0  0  0
   -4.0246    1.1472   -0.2060 C   0  0  0  0  0  0  0  0  0  0  0  0
   -4.2623   -0.1915   -0.4762 C   0  0  0  0  0  0  0  0  0  0  0  0
   -3.2641   -1.1191   -0.6410 C   0  0  0  0  0  0  0  0  0  0  0  0
   -3.4773   -2.4597   -0.9136 O   0  0  0  0  0  0  0  0  0  0  0  0
   -4.6835   -3.1162   -1.0697 C   0  0  0  0  0  0  0  0  0  0  0  0
    3.3994    1.8454   -1.8213 H   0  0  0  0  0  0  0  0  0  0  0  0
    1.9573    1.2057   -0.9808 H   0  0  0  0  0  0  0  0  0  0  0  0
    2.1423    0.9219   -2.7719 H   0  0  0  0  0  0  0  0  0  0  0  0
    4.4099   -0.1741   -2.0676 H   0  0  0  0  0  0  0  0  0  0  0  0
    2.9103   -1.1896   -1.7557 H   0  0  0  0  0  0  0  0  0  0  0  0
    7.3511    0.2315    1.7255 H   0  0  0  0  0  0  0  0  0  0  0  0
    6.6033    0.8684    3.2079 H   0  0  0  0  0  0  0  0  0  0  0  0
    2.0063   -0.4874    4.1249 H   0  0  0  0  0  0  0  0  0  0  0  0
    1.0951   -1.3273    2.8447 H   0  0  0  0  0  0  0  0  0  0  0  0
   -1.2444   -2.6060   -0.2377 H   0  0  0  0  0  0  0  0  0  0  0  0
   -0.7064   -1.9116   -1.7723 H   0  0  0  0  0  0  0  0  0  0  0  0
   -0.6607    1.0294   -0.1634 H   0  0  0  0  0  0  0  0  0  0  0  0
   -4.1856    3.3934    1.1273 H   0  0  0  0  0  0  0  0  0  0  0  0
   -4.0085    3.8818   -0.6604 H   0  0  0  0  0  0  0  0  0  0  0  0
   -3.1234    4.7996    0.6767 H   0  0  0  0  0  0  0  0  0  0  0  0
   -4.8064    1.8679   -0.0777 H   0  0  0  0  0  0  0  0  0  0  0  0
   -5.2840   -0.4833   -0.5563 H   0  0  0  0  0  0  0  0  0  0  0  0
   -4.9446   -3.3797   -2.1170 H   0  0  0  0  0  0  0  0  0  0  0  0
   -5.5106   -2.4724   -0.7162 H   0  0  0  0  0  0  0  0  0  0  0  0
   -4.7262   -4.0308   -0.4050 H   0  0  0  0  0  0  0  0  0  0  0  0
  1  2  1  0
  2  3  1  0
  3  4  2  0
  3 10  1  0
  4  5  1  0
  5  6  1  0
  5  7  2  0
  7  8  1  0
  8  9  1  0
  8 10  2  0
 10 11  1  0
 11 12  3  0
 12 13  1  0
 13 14  1  0
 14 15  2  0
 14 21  1  0
 15 16  1  0
 16 17  1  0
 16 19  2  0
 17 18  1  0
 19 20  1  0
 20 21  2  0
 21 22  1  0
 22 23  1  0
  1 24  1  0
  1 25  1  0
  1 26  1  0
  2 27  1  0
  2 28  1  0
  6 29  1  0
  6 30  1  0
  9 31  1  0
  9 32  1  0
 13 33  1  0
 13 34  1  0
 15 35  1  0
 18 36  1  0
 18 37  1  0
 18 38  1  0
 19 39  1  0
 20 40  1  0
 23 41  1  0
 23 42  1  0
 23 43  1  0
M  END

