99444367
     RDKit          3D

 20 20  0  0  1  0  0  0  0  0999 V2000
    2.7306    1.6045   -0.6071 O   0  0  0  0  0  0  0  0  0  0  0  0
    2.6356    0.3539   -0.0249 C   0  0  0  0  0  0  0  0  0  0  0  0
    3.4286    0.0974    0.9128 O   0  0  0  0  0  0  0  0  0  0  0  0
    1.6546   -0.6429   -0.4745 C   0  0  1  0  0  0  0  0  0  0  0  0
    1.8292   -1.8339    0.2726 O   0  0  0  0  0  0  0  0  0  0  0  0
    0.2411   -0.2357   -0.2888 C   0  0  0  0  0  0  0  0  0  0  0  0
   -0.1737    1.0364   -0.0080 C   0  0  0  0  0  0  0  0  0  0  0  0
   -1.5130    1.3711    0.1570 C   0  0  0  0  0  0  0  0  0  0  0  0
   -0.7562   -1.1976   -0.4039 C   0  0  0  0  0  0  0  0  0  0  0  0
   -2.0830   -0.9035   -0.2478 C   0  0  0  0  0  0  0  0  0  0  0  0
   -2.4719    0.3859    0.0344 C   0  0  0  0  0  0  0  0  0  0  0  0
   -3.8127    0.7052    0.1965 O   0  0  0  0  0  0  0  0  0  0  0  0
    3.2047    2.3792   -0.1726 H   0  0  0  0  0  0  0  0  0  0  0  0
    1.7856   -0.8926   -1.5674 H   0  0  0  0  0  0  0  0  0  0  0  0
    2.3093   -2.5179   -0.2620 H   0  0  0  0  0  0  0  0  0  0  0  0
    0.5416    1.8237    0.0950 H   0  0  0  0  0  0  0  0  0  0  0  0
   -1.8037    2.3832    0.3775 H   0  0  0  0  0  0  0  0  0  0  0  0
   -0.4401   -2.2184   -0.6280 H   0  0  0  0  0  0  0  0  0  0  0  0
   -2.8035   -1.6862   -0.3482 H   0  0  0  0  0  0  0  0  0  0  0  0
   -4.5029   -0.0116    0.1068 H   0  0  0  0  0  0  0  0  0  0  0  0
  1  2  1  0
  2  4  1  0
  2  3  2  0
  4  5  1  0
  4  6  1  0
  6  7  2  0
  7  8  1  0
  6  9  1  0
  9 10  2  0
 10 11  1  0
  8 11  2  0
 11 12  1  0
  1 13  1  0
  4 14  1  6
  5 15  1  0
  7 16  1  0
  8 17  1  0
  9 18  1  0
 10 19  1  0
 12 20  1  0
M  END

