99443396
     RDKit          3D

 48 51  0  0  0  0  0  0  0  0999 V2000
    5.7892    0.4650   -1.5985 C   0  0  0  0  0  0  0  0  0  0  0  0
    4.7855    0.5615   -0.6525 C   0  0  0  0  0  0  0  0  0  0  0  0
    5.0116    1.4216    0.4111 C   0  0  0  0  0  0  0  0  0  0  0  0
    6.1369    2.1049    0.4933 N   0  0  0  0  0  0  0  0  0  0  0  0
    7.1387    2.0218   -0.4394 C   0  0  0  0  0  0  0  0  0  0  0  0
    6.9170    1.1787   -1.4769 N   0  0  0  0  0  0  0  0  0  0  0  0
    3.6150   -0.1642   -0.7546 C   0  0  0  0  0  0  0  0  0  0  0  0
    2.6153   -0.0900    0.1654 C   0  0  0  0  0  0  0  0  0  0  0  0
    2.8246    0.7766    1.2423 C   0  0  0  0  0  0  0  0  0  0  0  0
    3.9891    1.4930    1.3405 C   0  0  0  0  0  0  0  0  0  0  0  0
    8.3351    2.7587   -0.3013 N   0  0  0  0  0  0  0  0  0  0  0  0
    1.4021   -0.8816    0.1122 C   0  0  0  0  0  0  0  0  0  0  0  0
    0.2119   -0.2604   -0.2945 C   0  0  0  0  0  0  0  0  0  0  0  0
   -0.9547   -0.9713   -0.3496 C   0  0  0  0  0  0  0  0  0  0  0  0
   -0.9113   -2.3215    0.0098 C   0  0  0  0  0  0  0  0  0  0  0  0
    0.2441   -2.9231    0.4062 C   0  0  0  0  0  0  0  0  0  0  0  0
    1.4347   -2.2097    0.4664 C   0  0  0  0  0  0  0  0  0  0  0  0
    2.6866   -2.8803    0.9645 C   0  0  0  0  0  0  0  0  0  0  0  0
   -2.2619   -0.3632   -0.6813 C   0  0  0  0  0  0  0  0  0  0  0  0
   -2.4025    0.2976   -1.6853 O   0  0  0  0  0  0  0  0  0  0  0  0
   -3.2745   -0.6254    0.2505 N   0  0  0  0  0  0  0  0  0  0  0  0
   -4.6312   -0.2741    0.2979 C   0  0  0  0  0  0  0  0  0  0  0  0
   -5.2253    0.8356   -0.2786 C   0  0  0  0  0  0  0  0  0  0  0  0
   -6.5588    1.1207   -0.1537 C   0  0  0  0  0  0  0  0  0  0  0  0
   -7.3852    0.2607    0.5798 C   0  0  0  0  0  0  0  0  0  0  0  0
   -6.8523   -0.8360    1.1527 C   0  0  0  0  0  0  0  0  0  0  0  0
   -5.5006   -1.1138    1.0241 C   0  0  0  0  0  0  0  0  0  0  0  0
   -7.1541    2.3543   -0.7579 C   0  0  0  0  0  0  0  0  0  0  0  0
   -7.2313    2.2414   -2.1394 F   0  0  0  0  0  0  0  0  0  0  0  0
   -8.4394    2.5412   -0.2870 F   0  0  0  0  0  0  0  0  0  0  0  0
   -6.3290    3.3813   -0.3800 F   0  0  0  0  0  0  0  0  0  0  0  0
    5.6469   -0.2070   -2.4241 H   0  0  0  0  0  0  0  0  0  0  0  0
    3.4607   -0.8190   -1.6178 H   0  0  0  0  0  0  0  0  0  0  0  0
    2.0238    0.8236    1.9705 H   0  0  0  0  0  0  0  0  0  0  0  0
    4.1301    2.1471    2.1925 H   0  0  0  0  0  0  0  0  0  0  0  0
    9.1252    2.2734    0.1640 H   0  0  0  0  0  0  0  0  0  0  0  0
    8.4794    3.7353   -0.6297 H   0  0  0  0  0  0  0  0  0  0  0  0
    0.2186    0.7963   -0.5982 H   0  0  0  0  0  0  0  0  0  0  0  0
   -1.8535   -2.8734   -0.0293 H   0  0  0  0  0  0  0  0  0  0  0  0
    0.3112   -3.9844    0.6832 H   0  0  0  0  0  0  0  0  0  0  0  0
    3.5323   -2.4105    0.4815 H   0  0  0  0  0  0  0  0  0  0  0  0
    2.6648   -3.9575    0.7385 H   0  0  0  0  0  0  0  0  0  0  0  0
    2.7502   -2.6738    2.0676 H   0  0  0  0  0  0  0  0  0  0  0  0
   -2.9617   -1.2248    1.1095 H   0  0  0  0  0  0  0  0  0  0  0  0
   -4.5704    1.5137   -0.8452 H   0  0  0  0  0  0  0  0  0  0  0  0
   -8.4386    0.4903    0.6586 H   0  0  0  0  0  0  0  0  0  0  0  0
   -7.4637   -1.5326    1.7457 H   0  0  0  0  0  0  0  0  0  0  0  0
   -5.0808   -1.9969    1.4704 H   0  0  0  0  0  0  0  0  0  0  0  0
  1  6  2  0
  1  2  1  0
  2  7  2  0
  2  3  1  0
  3  4  1  0
  3 10  2  0
  4  5  2  0
  5  6  1  0
  5 11  1  0
  7  8  1  0
  8 12  1  0
  8  9  2  0
  9 10  1  0
 12 17  1  0
 12 13  2  0
 13 14  1  0
 14 15  2  0
 14 19  1  0
 15 16  1  0
 16 17  2  0
 17 18  1  0
 19 21  1  0
 19 20  2  0
 21 22  1  0
 22 27  1  0
 22 23  2  0
 23 24  1  0
 24 25  2  0
 24 28  1  0
 25 26  1  0
 26 27  2  0
 28 30  1  0
 28 31  1  0
 28 29  1  0
  1 32  1  0
  7 33  1  0
  9 34  1  0
 10 35  1  0
 11 36  1  0
 11 37  1  0
 13 38  1  0
 15 39  1  0
 16 40  1  0
 18 41  1  0
 18 42  1  0
 18 43  1  0
 21 44  1  0
 23 45  1  0
 25 46  1  0
 26 47  1  0
 27 48  1  0
M  END

