99444080
     RDKit          3D

 29 30  0  0  0  0  0  0  0  0999 V2000
    2.4867   -0.0318    0.0871 C   0  0  0  0  0  0  0  0  0  0  0  0
    2.7372    1.3255    0.1806 C   0  0  0  0  0  0  0  0  0  0  0  0
    4.0243    1.8096    0.0492 C   0  0  0  0  0  0  0  0  0  0  0  0
    5.0879    0.9628   -0.1771 C   0  0  0  0  0  0  0  0  0  0  0  0
    4.8340   -0.3522   -0.2662 N   0  0  0  0  0  0  0  0  0  0  0  0
    3.5843   -0.8307   -0.1393 C   0  0  0  0  0  0  0  0  0  0  0  0
    1.1431   -0.5842    0.2199 C   0  0  0  0  0  0  0  0  0  0  0  0
    0.8444   -1.9268    0.1343 C   0  0  0  0  0  0  0  0  0  0  0  0
   -0.5026   -2.0447    0.3087 C   0  0  0  0  0  0  0  0  0  0  0  0
   -0.9964   -0.7742    0.4965 C   0  0  0  0  0  0  0  0  0  0  0  0
    0.0194    0.0369    0.4332 O   0  0  0  0  0  0  0  0  0  0  0  0
   -2.4303   -0.4721    0.7225 C   0  0  0  0  0  0  0  0  0  0  0  0
   -3.1381   -0.2445   -0.5265 N   0  0  0  0  0  0  0  0  0  0  0  0
   -2.5199    0.8859   -1.2042 C   0  0  0  0  0  0  0  0  0  0  0  0
   -4.4839    0.2106   -0.1452 C   0  0  0  0  0  0  0  0  0  0  0  0
    1.9083    1.9790    0.3563 H   0  0  0  0  0  0  0  0  0  0  0  0
    4.2507    2.8779    0.1188 H   0  0  0  0  0  0  0  0  0  0  0  0
    6.0834    1.3782   -0.2749 H   0  0  0  0  0  0  0  0  0  0  0  0
    3.3778   -1.9077   -0.2125 H   0  0  0  0  0  0  0  0  0  0  0  0
    1.5455   -2.7573   -0.0406 H   0  0  0  0  0  0  0  0  0  0  0  0
   -1.0236   -2.9923    0.2910 H   0  0  0  0  0  0  0  0  0  0  0  0
   -2.4747    0.4358    1.3671 H   0  0  0  0  0  0  0  0  0  0  0  0
   -2.8960   -1.3332    1.2364 H   0  0  0  0  0  0  0  0  0  0  0  0
   -1.7311    0.4699   -1.8676 H   0  0  0  0  0  0  0  0  0  0  0  0
   -2.0689    1.5424   -0.4340 H   0  0  0  0  0  0  0  0  0  0  0  0
   -3.2277    1.4267   -1.8609 H   0  0  0  0  0  0  0  0  0  0  0  0
   -4.9390    0.7154   -0.9984 H   0  0  0  0  0  0  0  0  0  0  0  0
   -5.0943   -0.6627    0.1528 H   0  0  0  0  0  0  0  0  0  0  0  0
   -4.4007    0.8580    0.7603 H   0  0  0  0  0  0  0  0  0  0  0  0
  1  2  2  0
  1  6  1  0
  1  7  1  0
  2  3  1  0
  3  4  2  0
  4  5  1  0
  5  6  2  0
  7  8  2  0
  7 11  1  0
  8  9  1  0
  9 10  2  0
 10 11  1  0
 10 12  1  0
 12 13  1  0
 13 14  1  0
 13 15  1  0
  2 16  1  0
  3 17  1  0
  4 18  1  0
  6 19  1  0
  8 20  1  0
  9 21  1  0
 12 22  1  0
 12 23  1  0
 14 24  1  0
 14 25  1  0
 14 26  1  0
 15 27  1  0
 15 28  1  0
 15 29  1  0
M  END

