99444274
     RDKit          3D

 22 23  0  0  0  0  0  0  0  0999 V2000
   -0.9784    0.0073    0.2871 C   0  0  0  0  0  0  0  0  0  0  0  0
   -2.0476    0.8200   -0.0199 C   0  0  0  0  0  0  0  0  0  0  0  0
   -1.2418   -1.0263    1.1588 C   0  0  0  0  0  0  0  0  0  0  0  0
   -3.3085    0.5972    0.5249 C   0  0  0  0  0  0  0  0  0  0  0  0
   -2.4780   -1.2671    1.7102 C   0  0  0  0  0  0  0  0  0  0  0  0
   -3.5334   -0.4470    1.3932 C   0  0  0  0  0  0  0  0  0  0  0  0
    0.3518    0.2090   -0.2620 C   0  0  0  0  0  0  0  0  0  0  0  0
    3.8716   -0.3941   -0.8421 C   0  0  0  0  0  0  0  0  0  0  0  0
    1.9556    1.1253   -1.4411 C   0  0  0  0  0  0  0  0  0  0  0  0
    2.4875    0.0318   -0.7589 C   0  0  0  0  0  0  0  0  0  0  0  0
    0.6631    1.1995   -1.1149 N   0  0  0  0  0  0  0  0  0  0  0  0
    1.4731   -0.4971   -0.0520 N   0  0  0  0  0  0  0  0  0  0  0  0
    4.2839   -1.4940   -0.1195 O   0  0  0  0  0  0  0  0  0  0  0  0
    4.6988    0.2121   -1.5528 O   0  0  0  0  0  0  0  0  0  0  0  0
   -1.8800    1.6446   -0.7027 H   0  0  0  0  0  0  0  0  0  0  0  0
   -0.3852   -1.6642    1.3947 H   0  0  0  0  0  0  0  0  0  0  0  0
   -4.1542    1.2301    0.2895 H   0  0  0  0  0  0  0  0  0  0  0  0
   -2.6448   -2.0987    2.3982 H   0  0  0  0  0  0  0  0  0  0  0  0
   -4.5314   -0.5990    1.8058 H   0  0  0  0  0  0  0  0  0  0  0  0
    2.5305    1.7695   -2.1062 H   0  0  0  0  0  0  0  0  0  0  0  0
    0.0169    1.9477   -1.4980 H   0  0  0  0  0  0  0  0  0  0  0  0
    4.8505   -2.2351   -0.4923 H   0  0  0  0  0  0  0  0  0  0  0  0
  1  2  2  0
  1  3  1  0
  1  7  1  0
  2  4  1  0
  3  5  2  0
  4  6  2  0
  5  6  1  0
  7 12  2  0
  7 11  1  0
  8 10  1  0
  8 13  1  0
  8 14  2  0
  9 10  2  0
  9 11  1  0
 10 12  1  0
  2 15  1  0
  3 16  1  0
  4 17  1  0
  5 18  1  0
  6 19  1  0
  9 20  1  0
 11 21  1  0
 13 22  1  0
M  END

