99445212
     RDKit          3D

 48 51  0  0  1  0  0  0  0  0999 V2000
   -5.5435    1.9391    1.8165 N   0  0  0  0  0  0  0  0  0  0  0  0
   -4.6737    1.2317    0.9509 C   0  0  0  0  0  0  0  0  0  0  0  0
   -4.2844    1.7855   -0.2212 N   0  0  0  0  0  0  0  0  0  0  0  0
   -4.2059    0.0228    1.2480 N   0  0  0  0  0  0  0  0  0  0  0  0
   -3.3757   -0.6453    0.4411 C   0  0  0  0  0  0  0  0  0  0  0  0
   -2.9506   -0.1078   -0.7711 C   0  0  0  0  0  0  0  0  0  0  0  0
   -3.4392    1.1297   -1.0702 C   0  0  0  0  0  0  0  0  0  0  0  0
   -3.1488    1.7230   -2.3311 N   0  0  0  0  0  0  0  0  0  0  0  0
   -1.9455   -0.8100   -1.5479 C   0  0  0  0  0  0  0  0  0  0  0  0
   -0.6562   -1.0273   -0.8917 C   0  0  0  0  0  0  0  0  0  0  0  0
    0.3132   -0.1098   -0.6630 C   0  0  0  0  0  0  0  0  0  0  0  0
    0.1397    1.2823   -1.0961 C   0  0  0  0  0  0  0  0  0  0  0  0
    1.0941    2.1562   -0.8576 C   0  0  0  0  0  0  0  0  0  0  0  0
    2.3443    1.8305   -0.1742 C   0  0  1  0  0  0  0  0  0  0  0  0
    2.5088    2.7805    0.9845 C   0  0  0  0  0  0  0  0  0  0  0  0
    3.6706    2.7233    1.8797 C   0  0  0  0  0  0  0  0  0  0  0  0
    3.6741    3.7609    0.8268 C   0  0  0  0  0  0  0  0  0  0  0  0
    2.4547    0.4889    0.2041 O   0  0  0  0  0  0  0  0  0  0  0  0
    1.4956   -0.4560   -0.0141 C   0  0  0  0  0  0  0  0  0  0  0  0
    1.6981   -1.7638    0.4095 C   0  0  0  0  0  0  0  0  0  0  0  0
    2.8558   -2.1420    1.0539 O   0  0  0  0  0  0  0  0  0  0  0  0
    3.9383   -2.5121    0.1828 C   0  0  0  0  0  0  0  0  0  0  0  0
    0.7140   -2.6987    0.1766 C   0  0  0  0  0  0  0  0  0  0  0  0
   -0.4380   -2.3430   -0.4576 C   0  0  0  0  0  0  0  0  0  0  0  0
    0.9524   -3.9903    0.6074 O   0  0  0  0  0  0  0  0  0  0  0  0
    0.1091   -5.0941    0.4772 C   0  0  0  0  0  0  0  0  0  0  0  0
   -5.6073    2.9547    1.7030 H   0  0  0  0  0  0  0  0  0  0  0  0
   -6.0782    1.4227    2.5229 H   0  0  0  0  0  0  0  0  0  0  0  0
   -3.0214   -1.6266    0.7383 H   0  0  0  0  0  0  0  0  0  0  0  0
   -2.9396    2.7086   -2.4256 H   0  0  0  0  0  0  0  0  0  0  0  0
   -3.1600    1.1037   -3.1882 H   0  0  0  0  0  0  0  0  0  0  0  0
   -2.3850   -1.7804   -1.8992 H   0  0  0  0  0  0  0  0  0  0  0  0
   -1.8001   -0.2513   -2.5396 H   0  0  0  0  0  0  0  0  0  0  0  0
   -0.7276    1.5672   -1.6122 H   0  0  0  0  0  0  0  0  0  0  0  0
    0.9326    3.1694   -1.1895 H   0  0  0  0  0  0  0  0  0  0  0  0
    3.2049    2.0003   -0.8888 H   0  0  0  0  0  0  0  0  0  0  0  0
    1.5460    3.1975    1.4132 H   0  0  0  0  0  0  0  0  0  0  0  0
    3.5682    3.1075    2.9304 H   0  0  0  0  0  0  0  0  0  0  0  0
    4.3217    1.8179    1.8124 H   0  0  0  0  0  0  0  0  0  0  0  0
    4.3717    3.6144   -0.0111 H   0  0  0  0  0  0  0  0  0  0  0  0
    3.4717    4.8160    1.0831 H   0  0  0  0  0  0  0  0  0  0  0  0
    4.2537   -1.5160   -0.2574 H   0  0  0  0  0  0  0  0  0  0  0  0
    3.4993   -3.0506   -0.6795 H   0  0  0  0  0  0  0  0  0  0  0  0
    4.7514   -3.0234    0.6825 H   0  0  0  0  0  0  0  0  0  0  0  0
   -1.1937   -3.0910   -0.6241 H   0  0  0  0  0  0  0  0  0  0  0  0
   -0.5978   -5.0004   -0.3757 H   0  0  0  0  0  0  0  0  0  0  0  0
    0.7051   -6.0141    0.2170 H   0  0  0  0  0  0  0  0  0  0  0  0
   -0.4166   -5.2802    1.4249 H   0  0  0  0  0  0  0  0  0  0  0  0
  1  2  1  0
  2  3  2  0
  2  4  1  0
  3  7  1  0
  4  5  2  0
  5  6  1  0
  6  7  2  0
  6  9  1  0
  7  8  1  0
  9 10  1  0
 10 11  1  0
 10 24  2  0
 11 12  1  0
 11 19  2  0
 12 13  2  0
 13 14  1  0
 14 15  1  0
 14 18  1  0
 15 16  1  0
 15 17  1  0
 16 17  1  0
 18 19  1  0
 19 20  1  0
 20 21  1  0
 20 23  2  0
 21 22  1  0
 23 24  1  0
 23 25  1  0
 25 26  1  0
  1 27  1  0
  1 28  1  0
  5 29  1  0
  8 30  1  0
  8 31  1  0
  9 32  1  0
  9 33  1  0
 12 34  1  0
 13 35  1  0
 14 36  1  6
 15 37  1  0
 16 38  1  0
 16 39  1  0
 17 40  1  0
 17 41  1  0
 22 42  1  0
 22 43  1  0
 22 44  1  0
 24 45  1  0
 26 46  1  0
 26 47  1  0
 26 48  1  0
M  END

