99444249
     RDKit          3D

 46 49  0  0  1  0  0  0  0  0999 V2000
   -2.7834   -0.9181   -0.8694 N   0  0  0  0  0  0  0  0  0  0  0  0
   -1.4062   -0.5133   -1.0563 C   0  0  0  0  0  0  0  0  0  0  0  0
   -2.7441   -1.8173    0.2560 C   0  0  0  0  0  0  0  0  0  0  0  0
   -0.8426   -0.6243    0.2978 C   0  0  1  0  0  0  0  0  0  0  0  0
   -1.4222   -1.9020    0.6656 O   0  0  0  0  0  0  0  0  0  0  0  0
   -3.9047   -0.5382   -1.6034 N   0  0  0  0  0  0  0  0  0  0  0  0
    0.5999   -0.6273    0.4285 C   0  0  0  0  0  0  0  0  0  0  0  0
   -0.9455   -0.1765   -2.1612 O   0  0  0  0  0  0  0  0  0  0  0  0
   -3.7416   -2.4223    0.7770 O   0  0  0  0  0  0  0  0  0  0  0  0
    4.7975   -0.6136    0.9483 O   0  0  0  0  0  0  0  0  0  0  0  0
    1.4398   -1.4062   -0.3541 C   0  0  0  0  0  0  0  0  0  0  0  0
    1.2318    0.1494    1.3775 C   0  0  0  0  0  0  0  0  0  0  0  0
   -5.1114   -0.1772   -0.9736 C   0  0  0  0  0  0  0  0  0  0  0  0
    3.4449   -0.6127    0.7776 C   0  0  0  0  0  0  0  0  0  0  0  0
   -1.4399    0.3504    1.2917 C   0  0  0  0  0  0  0  0  0  0  0  0
    2.8133   -1.3941   -0.1793 C   0  0  0  0  0  0  0  0  0  0  0  0
    2.5964    0.1666    1.5561 C   0  0  0  0  0  0  0  0  0  0  0  0
    5.6784    0.1537    0.2868 C   0  0  0  0  0  0  0  0  0  0  0  0
   -6.0811   -1.1114   -0.7118 C   0  0  0  0  0  0  0  0  0  0  0  0
   -5.3216    1.1329   -0.6258 C   0  0  0  0  0  0  0  0  0  0  0  0
    6.3210   -0.3338   -0.8417 C   0  0  0  0  0  0  0  0  0  0  0  0
    5.9840    1.4302    0.6841 C   0  0  0  0  0  0  0  0  0  0  0  0
   -6.5059    1.4927   -0.0174 C   0  0  0  0  0  0  0  0  0  0  0  0
    6.9005    2.2088   -0.0117 C   0  0  0  0  0  0  0  0  0  0  0  0
    7.2332    0.3945   -1.5615 C   0  0  0  0  0  0  0  0  0  0  0  0
   -7.2791   -0.7662   -0.0993 C   0  0  0  0  0  0  0  0  0  0  0  0
    7.5133    1.6698   -1.1320 C   0  0  0  0  0  0  0  0  0  0  0  0
   -7.4884    0.5493    0.2483 C   0  0  0  0  0  0  0  0  0  0  0  0
   -3.8597   -0.5141   -2.6646 H   0  0  0  0  0  0  0  0  0  0  0  0
    0.9415   -2.0178   -1.1069 H   0  0  0  0  0  0  0  0  0  0  0  0
    0.6427    0.7986    2.0332 H   0  0  0  0  0  0  0  0  0  0  0  0
   -1.0588    1.3482    1.0693 H   0  0  0  0  0  0  0  0  0  0  0  0
   -2.5499    0.2976    1.2287 H   0  0  0  0  0  0  0  0  0  0  0  0
   -1.1663   -0.0192    2.2931 H   0  0  0  0  0  0  0  0  0  0  0  0
    3.4467   -2.0095   -0.8011 H   0  0  0  0  0  0  0  0  0  0  0  0
    3.0852    0.7822    2.3049 H   0  0  0  0  0  0  0  0  0  0  0  0
   -5.9194   -2.1427   -0.9804 H   0  0  0  0  0  0  0  0  0  0  0  0
   -4.5888    1.9226   -0.8041 H   0  0  0  0  0  0  0  0  0  0  0  0
    6.0771   -1.3502   -1.1587 H   0  0  0  0  0  0  0  0  0  0  0  0
    5.5030    1.8500    1.5614 H   0  0  0  0  0  0  0  0  0  0  0  0
   -6.6567    2.5277    0.2502 H   0  0  0  0  0  0  0  0  0  0  0  0
    7.1463    3.2112    0.2955 H   0  0  0  0  0  0  0  0  0  0  0  0
    7.6946   -0.0555   -2.4281 H   0  0  0  0  0  0  0  0  0  0  0  0
   -8.0554   -1.4832    0.1145 H   0  0  0  0  0  0  0  0  0  0  0  0
    8.2154    2.2659   -1.6631 H   0  0  0  0  0  0  0  0  0  0  0  0
   -8.4343    0.8444    0.7335 H   0  0  0  0  0  0  0  0  0  0  0  0
  1  2  1  0
  1  3  1  0
  2  4  1  0
  3  5  1  0
  1  6  1  0
  4  7  1  0
  2  8  2  0
  3  9  2  0
 10 14  1  0
  7 11  2  0
  7 12  1  0
  6 13  1  0
 14 17  1  0
  4 15  1  1
 11 16  1  0
 12 17  2  0
 10 18  1  0
 13 19  2  0
 13 20  1  0
 18 21  2  0
 18 22  1  0
 20 23  2  0
 22 24  2  0
 21 25  1  0
 19 26  1  0
 24 27  1  0
 23 28  1  0
  4  5  1  0
 26 28  2  0
 14 16  2  0
 25 27  2  0
  6 29  1  0
 11 30  1  0
 12 31  1  0
 15 32  1  0
 15 33  1  0
 15 34  1  0
 16 35  1  0
 17 36  1  0
 19 37  1  0
 20 38  1  0
 21 39  1  0
 22 40  1  0
 23 41  1  0
 24 42  1  0
 25 43  1  0
 26 44  1  0
 27 45  1  0
 28 46  1  0
M  END

