99444113
     RDKit          3D

 52 55  0  0  0  0  0  0  0  0999 V2000
    6.5074   -1.5031   -1.4617 F   0  0  0  0  0  0  0  0  0  0  0  0
    6.3534   -0.3669   -0.7009 C   0  0  0  0  0  0  0  0  0  0  0  0
    7.4255    0.3593   -0.3120 C   0  0  0  0  0  0  0  0  0  0  0  0
    7.1766    1.4937    0.4850 C   0  0  0  0  0  0  0  0  0  0  0  0
    5.9087    1.8335    0.8305 C   0  0  0  0  0  0  0  0  0  0  0  0
    4.8105    1.0553    0.4087 C   0  0  0  0  0  0  0  0  0  0  0  0
    5.0554   -0.0165   -0.3316 C   0  0  0  0  0  0  0  0  0  0  0  0
    3.9417   -0.8260   -0.9525 C   0  0  0  0  0  0  0  0  0  0  0  0
    2.9324   -1.2235   -0.1140 N   0  0  0  0  0  0  0  0  0  0  0  0
    2.4087   -0.5875    0.9771 C   0  0  0  0  0  0  0  0  0  0  0  0
    1.3065    0.2840    0.5933 C   0  0  0  0  0  0  0  0  0  0  0  0
    0.2974   -0.4021   -0.4085 C   0  0  0  0  0  0  0  0  0  0  0  0
    0.5822   -1.8031   -0.6423 C   0  0  0  0  0  0  0  0  0  0  0  0
    2.0273   -2.2436   -0.5988 C   0  0  0  0  0  0  0  0  0  0  0  0
   -0.9831   -0.0397    0.1704 C   0  0  0  0  0  0  0  0  0  0  0  0
   -2.2387   -0.1198    0.0882 O   0  0  0  0  0  0  0  0  0  0  0  0
   -3.4567   -0.6248    0.0792 C   0  0  0  0  0  0  0  0  0  0  0  0
   -4.5339    0.2796   -0.1747 C   0  0  0  0  0  0  0  0  0  0  0  0
   -4.2280    1.6041   -0.3787 C   0  0  0  0  0  0  0  0  0  0  0  0
   -2.8708    1.9828   -0.5899 N   0  0  0  0  0  0  0  0  0  0  0  0
   -5.2644    2.4861   -0.5202 N   0  0  0  0  0  0  0  0  0  0  0  0
   -6.5249    2.0549   -0.4633 C   0  0  0  0  0  0  0  0  0  0  0  0
   -7.5815    3.0676   -0.4898 N   0  0  0  0  0  0  0  0  0  0  0  0
   -6.8690    0.7695   -0.2809 N   0  0  0  0  0  0  0  0  0  0  0  0
   -5.8299   -0.1089   -0.1322 C   0  0  0  0  0  0  0  0  0  0  0  0
   -6.1130   -1.4258    0.1341 C   0  0  0  0  0  0  0  0  0  0  0  0
   -5.0992   -2.3597    0.3789 C   0  0  0  0  0  0  0  0  0  0  0  0
   -3.7832   -1.9411    0.3440 C   0  0  0  0  0  0  0  0  0  0  0  0
    8.4192    0.0774   -0.5720 H   0  0  0  0  0  0  0  0  0  0  0  0
    8.0409    2.0766    0.8079 H   0  0  0  0  0  0  0  0  0  0  0  0
    5.7002    2.7367    1.4466 H   0  0  0  0  0  0  0  0  0  0  0  0
    3.8429    1.4435    0.6746 H   0  0  0  0  0  0  0  0  0  0  0  0
    3.5037    0.0105   -1.6866 H   0  0  0  0  0  0  0  0  0  0  0  0
    4.2686   -1.5643   -1.6821 H   0  0  0  0  0  0  0  0  0  0  0  0
    3.0861   -0.1337    1.7335 H   0  0  0  0  0  0  0  0  0  0  0  0
    1.9171   -1.4631    1.6112 H   0  0  0  0  0  0  0  0  0  0  0  0
    0.6530    0.3737    1.5452 H   0  0  0  0  0  0  0  0  0  0  0  0
    1.5050    1.2973    0.3091 H   0  0  0  0  0  0  0  0  0  0  0  0
    0.4886    0.2284   -1.3442 H   0  0  0  0  0  0  0  0  0  0  0  0
    0.2502   -2.0607   -1.7043 H   0  0  0  0  0  0  0  0  0  0  0  0
   -0.0570   -2.4925   -0.0332 H   0  0  0  0  0  0  0  0  0  0  0  0
    2.4026   -2.6052   -1.5706 H   0  0  0  0  0  0  0  0  0  0  0  0
    2.1246   -3.0925    0.1008 H   0  0  0  0  0  0  0  0  0  0  0  0
   -0.7812   -0.6872    1.2695 H   0  0  0  0  0  0  0  0  0  0  0  0
   -0.7262    1.0078    0.8302 H   0  0  0  0  0  0  0  0  0  0  0  0
   -2.3377    2.5297    0.0708 H   0  0  0  0  0  0  0  0  0  0  0  0
   -2.3887    1.6795   -1.5062 H   0  0  0  0  0  0  0  0  0  0  0  0
   -8.5512    2.7450   -0.3745 H   0  0  0  0  0  0  0  0  0  0  0  0
   -7.3487    4.0608   -0.6060 H   0  0  0  0  0  0  0  0  0  0  0  0
   -7.1131   -1.7906    0.1752 H   0  0  0  0  0  0  0  0  0  0  0  0
   -5.2891   -3.3886    0.6057 H   0  0  0  0  0  0  0  0  0  0  0  0
   -2.9672   -2.6668    0.5732 H   0  0  0  0  0  0  0  0  0  0  0  0
  1  2  1  0
  2  3  2  0
  2  7  1  0
  3  4  1  0
  4  5  2  0
  5  6  1  0
  6  7  2  0
  7  8  1  0
  8  9  1  0
  9 10  1  0
  9 14  1  0
 10 11  1  0
 11 12  1  0
 12 13  1  0
 12 15  1  0
 13 14  1  0
 15 16  1  0
 16 17  1  0
 17 18  1  0
 17 28  2  0
 18 19  2  0
 18 25  1  0
 19 20  1  0
 19 21  1  0
 21 22  2  0
 22 23  1  0
 22 24  1  0
 24 25  2  0
 25 26  1  0
 26 27  2  0
 27 28  1  0
  3 29  1  0
  4 30  1  0
  5 31  1  0
  6 32  1  0
  8 33  1  0
  8 34  1  0
 10 35  1  0
 10 36  1  0
 11 37  1  0
 11 38  1  0
 12 39  1  0
 13 40  1  0
 13 41  1  0
 14 42  1  0
 14 43  1  0
 15 44  1  0
 15 45  1  0
 20 46  1  0
 20 47  1  0
 23 48  1  0
 23 49  1  0
 26 50  1  0
 27 51  1  0
 28 52  1  0
M  END

