99443557
     RDKit          3D

 39 41  0  0  1  0  0  0  0  0999 V2000
   -0.9950   -0.7543   -1.8870 C   0  0  0  0  0  0  0  0  0  0  0  0
    0.0022    0.1580   -1.1880 C   0  0  1  0  0  0  0  0  0  0  0  0
   -0.7536    1.2953   -0.6474 C   0  0  0  0  0  0  0  0  0  0  0  0
   -0.1706    2.6604   -0.7552 C   0  0  0  0  0  0  0  0  0  0  0  0
   -1.9175    1.1005   -0.0837 C   0  0  0  0  0  0  0  0  0  0  0  0
   -2.7342   -0.1310   -0.2448 C   0  0  0  0  0  0  0  0  0  0  0  0
   -1.9466   -1.2675   -0.8333 C   0  0  1  0  0  0  0  0  0  0  0  0
   -2.8883   -2.3164   -1.4056 C   0  0  0  0  0  0  0  0  0  0  0  0
   -3.7159   -2.7154   -0.3481 O   0  0  0  0  0  0  0  0  0  0  0  0
   -1.1978   -1.9507    0.3044 C   0  0  0  0  0  0  0  0  0  0  0  0
   -0.2274   -1.1380    0.8382 O   0  0  0  0  0  0  0  0  0  0  0  0
    0.6731   -0.6717   -0.1226 C   0  0  2  0  0  0  0  0  0  0  0  0
    1.7378    0.0762    0.5984 C   0  0  0  0  0  0  0  0  0  0  0  0
    3.0750   -0.0911    0.3032 C   0  0  0  0  0  0  0  0  0  0  0  0
    4.0681    0.5980    0.9677 C   0  0  0  0  0  0  0  0  0  0  0  0
    3.7642    1.4999    1.9734 C   0  0  0  0  0  0  0  0  0  0  0  0
    4.7736    2.1955    2.6435 O   0  0  0  0  0  0  0  0  0  0  0  0
    2.4324    1.6729    2.2744 C   0  0  0  0  0  0  0  0  0  0  0  0
    1.4451    0.9810    1.6063 C   0  0  0  0  0  0  0  0  0  0  0  0
   -0.5177   -1.5548   -2.4539 H   0  0  0  0  0  0  0  0  0  0  0  0
   -1.5927   -0.0869   -2.5568 H   0  0  0  0  0  0  0  0  0  0  0  0
    0.7664    0.4278   -1.9276 H   0  0  0  0  0  0  0  0  0  0  0  0
    0.0739    3.1160    0.2037 H   0  0  0  0  0  0  0  0  0  0  0  0
    0.7367    2.6662   -1.3890 H   0  0  0  0  0  0  0  0  0  0  0  0
   -0.9257    3.3326   -1.2426 H   0  0  0  0  0  0  0  0  0  0  0  0
   -2.3285    1.8838    0.5486 H   0  0  0  0  0  0  0  0  0  0  0  0
   -3.6101    0.0696   -0.8906 H   0  0  0  0  0  0  0  0  0  0  0  0
   -3.1096   -0.4491    0.7611 H   0  0  0  0  0  0  0  0  0  0  0  0
   -2.2509   -3.2048   -1.6372 H   0  0  0  0  0  0  0  0  0  0  0  0
   -3.4473   -1.9685   -2.2736 H   0  0  0  0  0  0  0  0  0  0  0  0
   -3.7126   -3.6776   -0.2059 H   0  0  0  0  0  0  0  0  0  0  0  0
   -0.8129   -2.9364   -0.0268 H   0  0  0  0  0  0  0  0  0  0  0  0
   -1.9474   -2.1490    1.0984 H   0  0  0  0  0  0  0  0  0  0  0  0
    1.0823   -1.5755   -0.6191 H   0  0  0  0  0  0  0  0  0  0  0  0
    3.3142   -0.8045   -0.4922 H   0  0  0  0  0  0  0  0  0  0  0  0
    5.1213    0.4570    0.7252 H   0  0  0  0  0  0  0  0  0  0  0  0
    5.1662    1.7622    3.4841 H   0  0  0  0  0  0  0  0  0  0  0  0
    2.1805    2.3707    3.0539 H   0  0  0  0  0  0  0  0  0  0  0  0
    0.3894    1.1198    1.8468 H   0  0  0  0  0  0  0  0  0  0  0  0
  1  2  1  0
  1  7  1  0
  2  3  1  0
  2 12  1  0
  3  4  1  0
  3  5  2  0
  5  6  1  0
  6  7  1  0
  7  8  1  6
  7 10  1  0
  8  9  1  0
 10 11  1  0
 11 12  1  0
 12 13  1  0
 13 14  2  0
 13 19  1  0
 14 15  1  0
 15 16  2  0
 16 17  1  0
 16 18  1  0
 18 19  2  0
  1 20  1  0
  1 21  1  0
  2 22  1  6
  4 23  1  0
  4 24  1  0
  4 25  1  0
  5 26  1  0
  6 27  1  0
  6 28  1  0
  8 29  1  0
  8 30  1  0
  9 31  1  0
 10 32  1  0
 10 33  1  0
 12 34  1  6
 14 35  1  0
 15 36  1  0
 17 37  1  0
 18 38  1  0
 19 39  1  0
M  END

