99443915
     RDKit          3D

 43 46  0  0  0  0  0  0  0  0999 V2000
    4.4028   -3.4308   -0.3565 O   0  0  0  0  0  0  0  0  0  0  0  0
    3.9703   -2.2481   -0.3042 C   0  0  0  0  0  0  0  0  0  0  0  0
    4.7032   -1.0692   -0.4124 N   0  0  0  0  0  0  0  0  0  0  0  0
    3.8268    0.0687   -0.2986 C   0  0  0  0  0  0  0  0  0  0  0  0
    4.2530    1.2407   -0.3645 O   0  0  0  0  0  0  0  0  0  0  0  0
    2.4864   -0.4366   -0.1108 C   0  0  0  0  0  0  0  0  0  0  0  0
    2.5751   -1.8123   -0.1146 C   0  0  0  0  0  0  0  0  0  0  0  0
    1.4764   -2.6503    0.0419 C   0  0  0  0  0  0  0  0  0  0  0  0
    1.5757   -4.1110    0.0373 C   0  0  0  0  0  0  0  0  0  0  0  0
    0.2602   -2.0359    0.2056 C   0  0  0  0  0  0  0  0  0  0  0  0
    0.1125   -0.6615    0.2175 C   0  0  0  0  0  0  0  0  0  0  0  0
    1.2373    0.1212    0.0578 C   0  0  0  0  0  0  0  0  0  0  0  0
    0.8184    1.4336    0.1074 C   0  0  0  0  0  0  0  0  0  0  0  0
    1.4627    2.6403    0.0113 C   0  0  0  0  0  0  0  0  0  0  0  0
    0.7048    3.8014    0.1085 C   0  0  0  0  0  0  0  0  0  0  0  0
    1.3359    5.1516    0.0133 C   0  0  0  0  0  0  0  0  0  0  0  0
   -0.6554    3.7448    0.2962 C   0  0  0  0  0  0  0  0  0  0  0  0
   -1.2911    2.5293    0.3912 C   0  0  0  0  0  0  0  0  0  0  0  0
   -0.5604    1.3659    0.2977 C   0  0  0  0  0  0  0  0  0  0  0  0
   -0.9860    0.1006    0.3641 N   0  0  0  0  0  0  0  0  0  0  0  0
   -2.3172   -0.3799    0.5505 C   0  0  0  0  0  0  0  0  0  0  0  0
   -3.0522   -0.5850   -0.7588 C   0  0  0  0  0  0  0  0  0  0  0  0
   -4.4451   -1.0930   -0.4414 C   0  0  0  0  0  0  0  0  0  0  0  0
   -4.4025   -2.3531    0.2846 N   0  0  0  0  0  0  0  0  0  0  0  0
    5.7411   -1.0286   -0.5556 H   0  0  0  0  0  0  0  0  0  0  0  0
    0.7397   -4.5773    0.6105 H   0  0  0  0  0  0  0  0  0  0  0  0
    1.6094   -4.4769   -1.0216 H   0  0  0  0  0  0  0  0  0  0  0  0
    2.5047   -4.4769    0.5163 H   0  0  0  0  0  0  0  0  0  0  0  0
   -0.6419   -2.6330    0.3335 H   0  0  0  0  0  0  0  0  0  0  0  0
    2.5060    2.7877   -0.1333 H   0  0  0  0  0  0  0  0  0  0  0  0
    2.4330    5.1133    0.1391 H   0  0  0  0  0  0  0  0  0  0  0  0
    1.0483    5.5399   -1.0023 H   0  0  0  0  0  0  0  0  0  0  0  0
    0.8298    5.8157    0.7440 H   0  0  0  0  0  0  0  0  0  0  0  0
   -1.2319    4.6542    0.3700 H   0  0  0  0  0  0  0  0  0  0  0  0
   -2.3640    2.4592    0.5394 H   0  0  0  0  0  0  0  0  0  0  0  0
   -2.9592    0.2968    1.1614 H   0  0  0  0  0  0  0  0  0  0  0  0
   -2.3496   -1.3668    1.0811 H   0  0  0  0  0  0  0  0  0  0  0  0
   -2.5486   -1.2758   -1.4334 H   0  0  0  0  0  0  0  0  0  0  0  0
   -3.1795    0.3928   -1.2641 H   0  0  0  0  0  0  0  0  0  0  0  0
   -4.9519   -1.2256   -1.4326 H   0  0  0  0  0  0  0  0  0  0  0  0
   -5.0455   -0.3481    0.1039 H   0  0  0  0  0  0  0  0  0  0  0  0
   -4.2956   -2.1727    1.3066 H   0  0  0  0  0  0  0  0  0  0  0  0
   -5.3355   -2.8092    0.1138 H   0  0  0  0  0  0  0  0  0  0  0  0
  1  2  2  0
  2  3  1  0
  2  7  1  0
  3  4  1  0
  4  5  2  0
  4  6  1  0
  6  7  2  0
  6 12  1  0
  7  8  1  0
  8  9  1  0
  8 10  2  0
 10 11  1  0
 11 12  2  0
 11 20  1  0
 12 13  1  0
 13 14  2  0
 13 19  1  0
 14 15  1  0
 15 16  1  0
 15 17  2  0
 17 18  1  0
 18 19  2  0
 19 20  1  0
 20 21  1  0
 21 22  1  0
 22 23  1  0
 23 24  1  0
  3 25  1  0
  9 26  1  0
  9 27  1  0
  9 28  1  0
 10 29  1  0
 14 30  1  0
 16 31  1  0
 16 32  1  0
 16 33  1  0
 17 34  1  0
 18 35  1  0
 21 36  1  0
 21 37  1  0
 22 38  1  0
 22 39  1  0
 23 40  1  0
 23 41  1  0
 24 42  1  0
 24 43  1  0
M  END

