99444038
     RDKit          3D

 64 68  0  0  1  0  0  0  0  0999 V2000
   -3.1581    0.1634    0.7792 C   0  0  2  0  0  0  0  0  0  0  0  0
   -2.1828   -0.0848    1.8858 C   0  0  1  0  0  0  0  0  0  0  0  0
   -2.5636   -1.3159    2.5126 O   0  0  0  0  0  0  0  0  0  0  0  0
   -3.2767   -2.2879    1.8359 C   0  0  0  0  0  0  0  0  0  0  0  0
   -3.6167   -3.4176    2.5902 C   0  0  0  0  0  0  0  0  0  0  0  0
   -4.3277   -4.4338    1.9927 C   0  0  0  0  0  0  0  0  0  0  0  0
   -4.6810   -4.3032    0.6702 C   0  0  0  0  0  0  0  0  0  0  0  0
   -5.4009   -5.3560    0.1051 O   0  0  0  0  0  0  0  0  0  0  0  0
   -4.3447   -3.1851   -0.0769 C   0  0  0  0  0  0  0  0  0  0  0  0
   -3.6375   -2.1736    0.5160 C   0  0  0  0  0  0  0  0  0  0  0  0
   -3.2518   -0.9576   -0.2269 C   0  0  1  0  0  0  0  0  0  0  0  0
   -4.4039   -0.6037   -1.1697 C   0  0  0  0  0  0  0  0  0  0  0  0
   -2.9828    1.4835    0.1242 C   0  0  0  0  0  0  0  0  0  0  0  0
   -1.8981    1.7800   -0.6741 C   0  0  0  0  0  0  0  0  0  0  0  0
   -1.7650    3.0290   -1.2695 C   0  0  0  0  0  0  0  0  0  0  0  0
   -2.7043    4.0182   -1.0895 C   0  0  0  0  0  0  0  0  0  0  0  0
   -2.5979    5.2794   -1.6738 O   0  0  0  0  0  0  0  0  0  0  0  0
   -3.8027    3.7228   -0.2833 C   0  0  0  0  0  0  0  0  0  0  0  0
   -3.9148    2.4925    0.2913 C   0  0  0  0  0  0  0  0  0  0  0  0
   -0.7769   -0.0726    1.5326 C   0  0  0  0  0  0  0  0  0  0  0  0
   -0.1753   -1.1404    0.9202 C   0  0  0  0  0  0  0  0  0  0  0  0
    1.1583   -1.1593    0.5758 C   0  0  0  0  0  0  0  0  0  0  0  0
    1.9437   -0.0699    0.8482 C   0  0  0  0  0  0  0  0  0  0  0  0
    1.3743    1.0186    1.4616 C   0  0  0  0  0  0  0  0  0  0  0  0
    0.0159    1.0180    1.8036 C   0  0  0  0  0  0  0  0  0  0  0  0
    3.3008   -0.0927    0.4959 O   0  0  0  0  0  0  0  0  0  0  0  0
    3.8424   -1.2211   -0.1315 C   0  0  0  0  0  0  0  0  0  0  0  0
    5.3030   -1.0192   -0.4086 C   0  0  0  0  0  0  0  0  0  0  0  0
    5.5265    0.0992   -1.2506 N   0  0  0  0  0  0  0  0  0  0  0  0
    5.2520    1.3537   -0.6401 C   0  0  0  0  0  0  0  0  0  0  0  0
    6.3917    2.2743   -0.9572 C   0  0  0  0  0  0  0  0  0  0  0  0
    7.0526    1.6535   -2.1439 C   0  0  0  0  0  0  0  0  0  0  0  0
    6.7989    0.1741   -1.8954 C   0  0  0  0  0  0  0  0  0  0  0  0
   -4.1697    0.1863    1.2882 H   0  0  0  0  0  0  0  0  0  0  0  0
   -2.4355    0.6886    2.6795 H   0  0  0  0  0  0  0  0  0  0  0  0
   -3.3384   -3.5191    3.6290 H   0  0  0  0  0  0  0  0  0  0  0  0
   -4.5798   -5.2966    2.5940 H   0  0  0  0  0  0  0  0  0  0  0  0
   -6.4180   -5.2635    0.1885 H   0  0  0  0  0  0  0  0  0  0  0  0
   -4.6652   -3.1704   -1.1099 H   0  0  0  0  0  0  0  0  0  0  0  0
   -2.3207   -1.0740   -0.8202 H   0  0  0  0  0  0  0  0  0  0  0  0
   -4.1260   -0.8430   -2.2237 H   0  0  0  0  0  0  0  0  0  0  0  0
   -5.2881   -1.2010   -0.9206 H   0  0  0  0  0  0  0  0  0  0  0  0
   -4.6865    0.4634   -1.0796 H   0  0  0  0  0  0  0  0  0  0  0  0
   -1.1385    1.0296   -0.8420 H   0  0  0  0  0  0  0  0  0  0  0  0
   -0.9092    3.2751   -1.9048 H   0  0  0  0  0  0  0  0  0  0  0  0
   -2.1282    6.0536   -1.2146 H   0  0  0  0  0  0  0  0  0  0  0  0
   -4.5614    4.4697   -0.1162 H   0  0  0  0  0  0  0  0  0  0  0  0
   -4.7932    2.3093    0.9153 H   0  0  0  0  0  0  0  0  0  0  0  0
   -0.7338   -2.0309    0.6800 H   0  0  0  0  0  0  0  0  0  0  0  0
    1.5943   -2.0175    0.0946 H   0  0  0  0  0  0  0  0  0  0  0  0
    2.0108    1.8632    1.6663 H   0  0  0  0  0  0  0  0  0  0  0  0
   -0.3513    1.9223    2.2863 H   0  0  0  0  0  0  0  0  0  0  0  0
    3.3596   -1.4276   -1.1232 H   0  0  0  0  0  0  0  0  0  0  0  0
    3.7135   -2.1356    0.5168 H   0  0  0  0  0  0  0  0  0  0  0  0
    5.8117   -0.8454    0.5704 H   0  0  0  0  0  0  0  0  0  0  0  0
    5.7568   -1.9519   -0.8085 H   0  0  0  0  0  0  0  0  0  0  0  0
    4.3245    1.7827   -1.0929 H   0  0  0  0  0  0  0  0  0  0  0  0
    5.1504    1.2656    0.4838 H   0  0  0  0  0  0  0  0  0  0  0  0
    7.1515    2.2559   -0.1220 H   0  0  0  0  0  0  0  0  0  0  0  0
    6.0704    3.3305   -1.1294 H   0  0  0  0  0  0  0  0  0  0  0  0
    6.5626    1.9313   -3.1076 H   0  0  0  0  0  0  0  0  0  0  0  0
    8.1549    1.8588   -2.1576 H   0  0  0  0  0  0  0  0  0  0  0  0
    7.6367   -0.1817   -1.2536 H   0  0  0  0  0  0  0  0  0  0  0  0
    6.8489   -0.3931   -2.8481 H   0  0  0  0  0  0  0  0  0  0  0  0
  1  2  1  0
  1 11  1  0
  1 13  1  0
  2  3  1  0
  2 20  1  0
  3  4  1  0
  4  5  2  0
  4 10  1  0
  5  6  1  0
  6  7  2  0
  7  8  1  0
  7  9  1  0
  9 10  2  0
 10 11  1  0
 11 12  1  0
 13 14  2  0
 13 19  1  0
 14 15  1  0
 15 16  2  0
 16 17  1  0
 16 18  1  0
 18 19  2  0
 20 21  2  0
 20 25  1  0
 21 22  1  0
 22 23  2  0
 23 24  1  0
 23 26  1  0
 24 25  2  0
 26 27  1  0
 27 28  1  0
 28 29  1  0
 29 30  1  0
 29 33  1  0
 30 31  1  0
 31 32  1  0
 32 33  1  0
  1 34  1  1
  2 35  1  1
  5 36  1  0
  6 37  1  0
  8 38  1  0
  9 39  1  0
 11 40  1  6
 12 41  1  0
 12 42  1  0
 12 43  1  0
 14 44  1  0
 15 45  1  0
 17 46  1  0
 18 47  1  0
 19 48  1  0
 21 49  1  0
 22 50  1  0
 24 51  1  0
 25 52  1  0
 27 53  1  0
 27 54  1  0
 28 55  1  0
 28 56  1  0
 30 57  1  0
 30 58  1  0
 31 59  1  0
 31 60  1  0
 32 61  1  0
 32 62  1  0
 33 63  1  0
 33 64  1  0
M  END

