99445123
     RDKit          3D

 23 24  0  0  0  0  0  0  0  0999 V2000
    3.0979   -0.8104   -1.0525 C   0  0  0  0  0  0  0  0  0  0  0  0
    2.0727   -1.7287   -0.9922 C   0  0  0  0  0  0  0  0  0  0  0  0
    2.8840    0.4926   -0.6112 C   0  0  0  0  0  0  0  0  0  0  0  0
    1.6670    0.9054   -0.1084 C   0  0  0  0  0  0  0  0  0  0  0  0
    0.8641   -1.3119   -0.4909 C   0  0  0  0  0  0  0  0  0  0  0  0
    0.6301   -0.0116   -0.0441 C   0  0  0  0  0  0  0  0  0  0  0  0
    1.2076    2.0753    0.3722 N   0  0  0  0  0  0  0  0  0  0  0  0
   -0.4645    0.6332    0.4861 C   0  0  0  0  0  0  0  0  0  0  0  0
   -0.0999    1.9291    0.7429 C   0  0  0  0  0  0  0  0  0  0  0  0
   -1.7657    0.0224    0.7198 C   0  0  0  0  0  0  0  0  0  0  0  0
   -2.5670   -0.1610   -0.5093 C   0  0  0  0  0  0  0  0  0  0  0  0
   -2.1936    0.1703   -1.6557 O   0  0  0  0  0  0  0  0  0  0  0  0
   -3.8473   -0.7528   -0.3765 N   0  0  0  0  0  0  0  0  0  0  0  0
    4.0600   -1.1315   -1.4478 H   0  0  0  0  0  0  0  0  0  0  0  0
    2.2737   -2.7298   -1.3434 H   0  0  0  0  0  0  0  0  0  0  0  0
    3.7280    1.1694   -0.6838 H   0  0  0  0  0  0  0  0  0  0  0  0
    0.0674   -2.0315   -0.4454 H   0  0  0  0  0  0  0  0  0  0  0  0
    1.7641    2.9658    0.4519 H   0  0  0  0  0  0  0  0  0  0  0  0
   -0.6847    2.7410    1.1601 H   0  0  0  0  0  0  0  0  0  0  0  0
   -2.3791    0.5675    1.4616 H   0  0  0  0  0  0  0  0  0  0  0  0
   -1.6008   -1.0027    1.1613 H   0  0  0  0  0  0  0  0  0  0  0  0
   -4.0031   -1.7942   -0.4861 H   0  0  0  0  0  0  0  0  0  0  0  0
   -4.7110   -0.2061   -0.1644 H   0  0  0  0  0  0  0  0  0  0  0  0
  1  2  2  0
  1  3  1  0
  3  4  2  0
  2  5  1  0
  4  6  1  0
  5  6  2  0
  4  7  1  0
  6  8  1  0
  7  9  1  0
  8  9  2  0
  8 10  1  0
 10 11  1  0
 11 12  2  0
 11 13  1  0
  1 14  1  0
  2 15  1  0
  3 16  1  0
  5 17  1  0
  7 18  1  0
  9 19  1  0
 10 20  1  0
 10 21  1  0
 13 22  1  0
 13 23  1  0
M  END

