99444508
     RDKit          3D

 61 64  0  0  1  0  0  0  0  0999 V2000
    1.5745   -0.9746   -0.9279 C   0  0  1  0  0  0  0  0  0  0  0  0
    2.0785   -2.1507   -0.1403 C   0  0  0  0  0  0  0  0  0  0  0  0
    1.2171   -1.4588   -2.2803 C   0  0  0  0  0  0  0  0  0  0  0  0
    2.3212   -2.1647   -2.8193 O   0  0  0  0  0  0  0  0  0  0  0  0
    1.3618   -2.7310    0.8551 C   0  0  0  0  0  0  0  0  0  0  0  0
    1.8868   -3.7883    1.5352 C   0  0  0  0  0  0  0  0  0  0  0  0
    3.1365   -4.2922    1.2404 C   0  0  0  0  0  0  0  0  0  0  0  0
    3.8820   -3.7184    0.2335 C   0  0  0  0  0  0  0  0  0  0  0  0
    3.3261   -2.6328   -0.4540 C   0  0  0  0  0  0  0  0  0  0  0  0
    4.4982    3.5288    1.8751 C   0  0  0  0  0  0  0  0  0  0  0  0
    3.6331    2.5464    1.4952 C   0  0  0  0  0  0  0  0  0  0  0  0
    3.7957    1.7729    0.3359 C   0  0  0  0  0  0  0  0  0  0  0  0
    4.8992    2.0532   -0.4292 C   0  0  0  0  0  0  0  0  0  0  0  0
    5.8110    3.0559   -0.0710 C   0  0  0  0  0  0  0  0  0  0  0  0
    5.5968    3.7854    1.0845 C   0  0  0  0  0  0  0  0  0  0  0  0
    4.3256    4.2608    2.9912 F   0  0  0  0  0  0  0  0  0  0  0  0
    5.1444    1.3662   -1.5618 F   0  0  0  0  0  0  0  0  0  0  0  0
    2.8514    0.7394   -0.0289 C   0  0  0  0  0  0  0  0  0  0  0  0
   -3.0842    0.4957   -0.1233 C   0  0  2  0  0  0  0  0  0  0  0  0
   -4.0293   -0.5348    0.5151 C   0  0  1  0  0  0  0  0  0  0  0  0
   -4.9817    0.2404    1.4220 C   0  0  0  0  0  0  0  0  0  0  0  0
   -5.2901    1.5325    0.8373 N   0  0  0  0  0  0  0  0  0  0  0  0
   -5.2333    1.5364   -0.6080 C   0  0  0  0  0  0  0  0  0  0  0  0
   -3.8734    1.1976   -1.1690 C   0  0  0  0  0  0  0  0  0  0  0  0
   -4.8262   -1.0187   -0.5023 F   0  0  0  0  0  0  0  0  0  0  0  0
   -6.6505    1.8638    1.2123 C   0  0  0  0  0  0  0  0  0  0  0  0
   -1.8763   -0.1553   -0.5968 N   0  0  0  0  0  0  0  0  0  0  0  0
   -0.6522    0.1755   -0.0224 C   0  0  0  0  0  0  0  0  0  0  0  0
    0.6737   -0.1844   -0.1842 N   0  0  0  0  0  0  0  0  0  0  0  0
   -2.0119   -1.1105   -1.6359 C   0  0  0  0  0  0  0  0  0  0  0  0
   -0.8389    1.0911    0.9467 O   0  0  0  0  0  0  0  0  0  0  0  0
    2.8060   -0.0776   -1.0314 C   0  0  0  0  0  0  0  0  0  0  0  0
    1.6535    0.4453    0.8080 C   0  0  0  0  0  0  0  0  0  0  0  0
    0.4527   -2.2870   -2.1541 H   0  0  0  0  0  0  0  0  0  0  0  0
    0.8431   -0.7154   -2.9855 H   0  0  0  0  0  0  0  0  0  0  0  0
    2.1310   -2.4364   -3.7467 H   0  0  0  0  0  0  0  0  0  0  0  0
    0.3760   -2.3107    1.0661 H   0  0  0  0  0  0  0  0  0  0  0  0
    1.3079   -4.2571    2.3392 H   0  0  0  0  0  0  0  0  0  0  0  0
    3.5460   -5.1460    1.7983 H   0  0  0  0  0  0  0  0  0  0  0  0
    4.8670   -4.0803   -0.0323 H   0  0  0  0  0  0  0  0  0  0  0  0
    3.9695   -2.2229   -1.2308 H   0  0  0  0  0  0  0  0  0  0  0  0
    2.7625    2.3382    2.1156 H   0  0  0  0  0  0  0  0  0  0  0  0
    6.6563    3.2307   -0.7083 H   0  0  0  0  0  0  0  0  0  0  0  0
    6.3329    4.5521    1.3186 H   0  0  0  0  0  0  0  0  0  0  0  0
   -2.7870    1.2382    0.6882 H   0  0  0  0  0  0  0  0  0  0  0  0
   -3.5154   -1.2839    1.1067 H   0  0  0  0  0  0  0  0  0  0  0  0
   -5.9306   -0.2988    1.5940 H   0  0  0  0  0  0  0  0  0  0  0  0
   -4.5164    0.4273    2.4081 H   0  0  0  0  0  0  0  0  0  0  0  0
   -6.0137    0.8752   -1.0165 H   0  0  0  0  0  0  0  0  0  0  0  0
   -5.5059    2.5668   -0.9238 H   0  0  0  0  0  0  0  0  0  0  0  0
   -4.0337    0.5117   -2.0250 H   0  0  0  0  0  0  0  0  0  0  0  0
   -3.3862    2.1298   -1.5417 H   0  0  0  0  0  0  0  0  0  0  0  0
   -6.8227    2.9630    1.1894 H   0  0  0  0  0  0  0  0  0  0  0  0
   -7.3787    1.3353    0.5433 H   0  0  0  0  0  0  0  0  0  0  0  0
   -6.8520    1.4555    2.2347 H   0  0  0  0  0  0  0  0  0  0  0  0
   -1.4876   -0.8757   -2.5806 H   0  0  0  0  0  0  0  0  0  0  0  0
   -1.6509   -2.0975   -1.2630 H   0  0  0  0  0  0  0  0  0  0  0  0
   -3.1130   -1.2877   -1.8603 H   0  0  0  0  0  0  0  0  0  0  0  0
    3.5204   -0.1375   -1.8364 H   0  0  0  0  0  0  0  0  0  0  0  0
    1.1984    1.3872    1.1236 H   0  0  0  0  0  0  0  0  0  0  0  0
    1.9048   -0.2684    1.5778 H   0  0  0  0  0  0  0  0  0  0  0  0
 12 18  1  0
 10 11  2  0
 11 12  1  0
 12 13  2  0
  2  9  1  0
  2  5  2  0
  1  3  1  6
  5  6  1  0
  1  2  1  0
  6  7  2  0
  3  4  1  0
  7  8  1  0
 20 21  1  0
 21 22  1  0
 22 23  1  0
 23 24  1  0
 19 20  1  0
 20 25  1  0
 19 24  1  0
 22 26  1  0
 19 27  1  0
  8  9  2  0
 27 28  1  0
 13 14  1  0
 28 29  1  0
 14 15  2  0
 27 30  1  0
 10 15  1  0
 28 31  2  0
  1 29  1  0
 10 16  1  0
 13 17  1  0
  1 32  1  0
 18 32  2  0
 18 33  1  0
 29 33  1  0
  3 34  1  0
  3 35  1  0
  4 36  1  0
  5 37  1  0
  6 38  1  0
  7 39  1  0
  8 40  1  0
  9 41  1  0
 11 42  1  0
 14 43  1  0
 15 44  1  0
 19 45  1  1
 20 46  1  1
 21 47  1  0
 21 48  1  0
 23 49  1  0
 23 50  1  0
 24 51  1  0
 24 52  1  0
 26 53  1  0
 26 54  1  0
 26 55  1  0
 30 56  1  0
 30 57  1  0
 30 58  1  0
 32 59  1  0
 33 60  1  0
 33 61  1  0
M  END

