99443439
     RDKit          3D

 34 35  0  0  0  0  0  0  0  0999 V2000
   -4.5612   -0.9924   -0.4121 C   0  0  0  0  0  0  0  0  0  0  0  0
   -5.9063   -0.8139   -0.6755 C   0  0  0  0  0  0  0  0  0  0  0  0
   -6.1317    0.5177   -0.5797 N   0  0  0  0  0  0  0  0  0  0  0  0
   -4.9660    1.1127   -0.2707 C   0  0  0  0  0  0  0  0  0  0  0  0
   -3.9809    0.1881   -0.1631 N   0  0  0  0  0  0  0  0  0  0  0  0
   -2.5835    0.4034    0.1536 C   0  0  0  0  0  0  0  0  0  0  0  0
   -1.8131    0.6266   -1.1279 C   0  0  0  0  0  0  0  0  0  0  0  0
   -0.3451    0.8584   -0.8701 C   0  0  0  0  0  0  0  0  0  0  0  0
    0.3257   -0.2885   -0.1764 C   0  0  0  0  0  0  0  0  0  0  0  0
    1.7798    0.0755    0.0171 C   0  0  0  0  0  0  0  0  0  0  0  0
    2.5431   -1.0304    0.7148 C   0  0  0  0  0  0  0  0  0  0  0  0
    3.9395   -0.6682    0.8948 N   0  0  0  0  0  0  0  0  0  0  0  0
    4.4671   -0.0208    1.9681 C   0  0  0  0  0  0  0  0  0  0  0  0
    4.9747   -0.8884    0.0658 C   0  0  0  0  0  0  0  0  0  0  0  0
    6.1173   -0.3782    0.6341 C   0  0  0  0  0  0  0  0  0  0  0  0
    5.7830    0.1515    1.8048 N   0  0  0  0  0  0  0  0  0  0  0  0
   -4.0955   -1.9631   -0.4186 H   0  0  0  0  0  0  0  0  0  0  0  0
   -6.6763   -1.5197   -0.9133 H   0  0  0  0  0  0  0  0  0  0  0  0
   -4.8606    2.1736   -0.1345 H   0  0  0  0  0  0  0  0  0  0  0  0
   -2.1866   -0.5398    0.5967 H   0  0  0  0  0  0  0  0  0  0  0  0
   -2.4879    1.2603    0.8445 H   0  0  0  0  0  0  0  0  0  0  0  0
   -2.0080   -0.1959   -1.8171 H   0  0  0  0  0  0  0  0  0  0  0  0
   -2.2119    1.5575   -1.5819 H   0  0  0  0  0  0  0  0  0  0  0  0
   -0.2257    1.7944   -0.2872 H   0  0  0  0  0  0  0  0  0  0  0  0
    0.1630    1.0010   -1.8448 H   0  0  0  0  0  0  0  0  0  0  0  0
    0.2957   -1.1872   -0.8226 H   0  0  0  0  0  0  0  0  0  0  0  0
   -0.1356   -0.5104    0.8145 H   0  0  0  0  0  0  0  0  0  0  0  0
    1.9264    1.0109    0.5736 H   0  0  0  0  0  0  0  0  0  0  0  0
    2.2536    0.2189   -0.9795 H   0  0  0  0  0  0  0  0  0  0  0  0
    2.1082   -1.2335    1.7012 H   0  0  0  0  0  0  0  0  0  0  0  0
    2.5276   -1.9713    0.1271 H   0  0  0  0  0  0  0  0  0  0  0  0
    3.9105    0.3172    2.8460 H   0  0  0  0  0  0  0  0  0  0  0  0
    4.9237   -1.3924   -0.9071 H   0  0  0  0  0  0  0  0  0  0  0  0
    7.1371   -0.3879    0.2256 H   0  0  0  0  0  0  0  0  0  0  0  0
  1  2  2  0
  1  5  1  0
  2  3  1  0
  3  4  2  0
  4  5  1  0
  5  6  1  0
  6  7  1  0
  7  8  1  0
  8  9  1  0
  9 10  1  0
 10 11  1  0
 11 12  1  0
 12 13  1  0
 12 14  1  0
 13 16  2  0
 14 15  2  0
 15 16  1  0
  1 17  1  0
  2 18  1  0
  4 19  1  0
  6 20  1  0
  6 21  1  0
  7 22  1  0
  7 23  1  0
  8 24  1  0
  8 25  1  0
  9 26  1  0
  9 27  1  0
 10 28  1  0
 10 29  1  0
 11 30  1  0
 11 31  1  0
 13 32  1  0
 14 33  1  0
 15 34  1  0
M  END

