99444483
     RDKit          3D

 54 56  0  0  0  0  0  0  0  0999 V2000
    4.7890    0.6264   -0.0512 C   0  0  0  0  0  0  0  0  0  0  0  0
    4.9742    0.3673    1.2902 C   0  0  0  0  0  0  0  0  0  0  0  0
    3.8500    0.3191    2.0871 C   0  0  0  0  0  0  0  0  0  0  0  0
    2.5843    0.5251    1.5488 C   0  0  0  0  0  0  0  0  0  0  0  0
    2.3964    0.7852    0.2025 C   0  0  0  0  0  0  0  0  0  0  0  0
    3.5293    0.8319   -0.5900 C   0  0  0  0  0  0  0  0  0  0  0  0
    1.1227    0.9906   -0.3287 O   0  0  0  0  0  0  0  0  0  0  0  0
    0.9609    1.2510   -1.6892 C   0  0  0  0  0  0  0  0  0  0  0  0
   -0.4141    1.4579   -2.1810 C   0  0  0  0  0  0  0  0  0  0  0  0
   -1.3879    0.3444   -2.0422 C   0  0  0  0  0  0  0  0  0  0  0  0
   -2.7392    0.7971   -2.6159 C   0  0  0  0  0  0  0  0  0  0  0  0
   -3.7312   -0.3433   -2.5207 C   0  0  0  0  0  0  0  0  0  0  0  0
   -3.7885   -0.7755   -1.1602 N   0  0  0  0  0  0  0  0  0  0  0  0
   -2.5280   -1.2507   -0.5877 C   0  0  0  0  0  0  0  0  0  0  0  0
   -1.5894   -0.0258   -0.6113 C   0  0  0  0  0  0  0  0  0  0  0  0
   -4.9598   -0.7756   -0.3415 C   0  0  0  0  0  0  0  0  0  0  0  0
   -6.1882   -0.3408   -0.7846 C   0  0  0  0  0  0  0  0  0  0  0  0
   -7.3115   -0.3591    0.0536 C   0  0  0  0  0  0  0  0  0  0  0  0
   -7.1824   -0.8215    1.3461 C   0  0  0  0  0  0  0  0  0  0  0  0
   -5.9639   -1.2360    1.7352 N   0  0  0  0  0  0  0  0  0  0  0  0
   -4.9089   -1.2158    0.9390 N   0  0  0  0  0  0  0  0  0  0  0  0
   -8.3361   -0.8721    2.3021 C   0  0  0  0  0  0  0  0  0  0  0  0
    6.3036    0.1521    1.8491 C   0  0  0  0  0  0  0  0  0  0  0  0
    7.4174    0.2062    1.0246 O   0  0  0  0  0  0  0  0  0  0  0  0
    8.6954    0.0021    1.5458 C   0  0  0  0  0  0  0  0  0  0  0  0
    8.8726   -1.3486    2.1849 C   0  0  0  0  0  0  0  0  0  0  0  0
    6.4897   -0.0846    3.0663 O   0  0  0  0  0  0  0  0  0  0  0  0
    5.6580    0.6644   -0.6720 H   0  0  0  0  0  0  0  0  0  0  0  0
    3.9814    0.1157    3.1476 H   0  0  0  0  0  0  0  0  0  0  0  0
    1.7143    0.4837    2.1878 H   0  0  0  0  0  0  0  0  0  0  0  0
    3.3908    1.0342   -1.6402 H   0  0  0  0  0  0  0  0  0  0  0  0
    1.5566    2.1928   -1.8861 H   0  0  0  0  0  0  0  0  0  0  0  0
    1.4364    0.4285   -2.2864 H   0  0  0  0  0  0  0  0  0  0  0  0
   -0.3767    1.7067   -3.2873 H   0  0  0  0  0  0  0  0  0  0  0  0
   -0.8149    2.3811   -1.6634 H   0  0  0  0  0  0  0  0  0  0  0  0
   -1.0325   -0.5573   -2.6132 H   0  0  0  0  0  0  0  0  0  0  0  0
   -2.6361    1.2089   -3.6213 H   0  0  0  0  0  0  0  0  0  0  0  0
   -3.1021    1.5760   -1.8949 H   0  0  0  0  0  0  0  0  0  0  0  0
   -3.2480   -1.1897   -3.0956 H   0  0  0  0  0  0  0  0  0  0  0  0
   -4.6759   -0.0655   -2.9834 H   0  0  0  0  0  0  0  0  0  0  0  0
   -2.6712   -1.5076    0.4634 H   0  0  0  0  0  0  0  0  0  0  0  0
   -2.1044   -2.0721   -1.1786 H   0  0  0  0  0  0  0  0  0  0  0  0
   -2.2210    0.7911   -0.1504 H   0  0  0  0  0  0  0  0  0  0  0  0
   -0.6997   -0.2221   -0.0207 H   0  0  0  0  0  0  0  0  0  0  0  0
   -6.3002    0.0214   -1.7886 H   0  0  0  0  0  0  0  0  0  0  0  0
   -8.2746   -0.0196   -0.2894 H   0  0  0  0  0  0  0  0  0  0  0  0
   -9.1715   -0.2523    1.9623 H   0  0  0  0  0  0  0  0  0  0  0  0
   -8.6583   -1.9058    2.4405 H   0  0  0  0  0  0  0  0  0  0  0  0
   -8.0354   -0.4830    3.3031 H   0  0  0  0  0  0  0  0  0  0  0  0
    9.0049    0.8297    2.2279 H   0  0  0  0  0  0  0  0  0  0  0  0
    9.4124    0.0499    0.6815 H   0  0  0  0  0  0  0  0  0  0  0  0
    7.9354   -1.8464    2.4480 H   0  0  0  0  0  0  0  0  0  0  0  0
    9.4131   -2.0551    1.4886 H   0  0  0  0  0  0  0  0  0  0  0  0
    9.5629   -1.2244    3.0496 H   0  0  0  0  0  0  0  0  0  0  0  0
 10 15  1  0
 11 12  1  0
 12 13  1  0
 13 14  1  0
 14 15  1  0
  3  4  1  0
 13 16  1  0
  7  8  1  0
 16 17  2  0
 17 18  1  0
  8  9  1  0
 18 19  2  0
  4  5  2  0
 19 20  1  0
  9 10  1  0
 20 21  2  0
 16 21  1  0
 10 11  1  0
 19 22  1  0
  2  3  2  0
  2 23  1  0
  5  6  1  0
 23 24  1  0
  1  6  2  0
 24 25  1  0
  1  2  1  0
 25 26  1  0
  5  7  1  0
 23 27  2  0
  1 28  1  0
  3 29  1  0
  4 30  1  0
  6 31  1  0
  8 32  1  0
  8 33  1  0
  9 34  1  0
  9 35  1  0
 10 36  1  0
 11 37  1  0
 11 38  1  0
 12 39  1  0
 12 40  1  0
 14 41  1  0
 14 42  1  0
 15 43  1  0
 15 44  1  0
 17 45  1  0
 18 46  1  0
 22 47  1  0
 22 48  1  0
 22 49  1  0
 25 50  1  0
 25 51  1  0
 26 52  1  0
 26 53  1  0
 26 54  1  0
M  END

