99445207
     RDKit          3D

 41 43  0  0  1  0  0  0  0  0999 V2000
    3.5009   -0.0259    1.1790 C   0  0  0  0  0  0  0  0  0  0  0  0
    4.8326   -0.0581    0.8282 C   0  0  0  0  0  0  0  0  0  0  0  0
    5.1741   -0.1872   -0.4985 C   0  0  0  0  0  0  0  0  0  0  0  0
    4.1822   -0.2792   -1.4257 C   0  0  0  0  0  0  0  0  0  0  0  0
    2.4833   -0.1203    0.2284 C   0  0  0  0  0  0  0  0  0  0  0  0
    2.8451   -0.2495   -1.0997 C   0  0  0  0  0  0  0  0  0  0  0  0
    0.1682   -0.1880   -0.4046 C   0  0  0  0  0  0  0  0  0  0  0  0
   -1.8166    1.1934    0.1623 C   0  0  0  0  0  0  0  0  0  0  0  0
   -1.2583   -0.1696   -0.1649 C   0  0  2  0  0  0  0  0  0  0  0  0
   -1.7699   -1.1850    0.8239 C   0  0  0  0  0  0  0  0  0  0  0  0
    1.1484   -0.0911    0.5610 C   0  0  0  0  0  0  0  0  0  0  0  0
    0.7662    0.0337    1.8514 O   0  0  0  0  0  0  0  0  0  0  0  0
    1.9005   -0.3395   -2.0012 O   0  0  0  0  0  0  0  0  0  0  0  0
    0.6492   -0.3135   -1.7046 C   0  0  0  0  0  0  0  0  0  0  0  0
   -0.1953   -0.4085   -2.6613 O   0  0  0  0  0  0  0  0  0  0  0  0
   -2.1836    2.0665   -0.8639 C   0  0  0  0  0  0  0  0  0  0  0  0
   -2.0041    1.6485    1.4346 C   0  0  0  0  0  0  0  0  0  0  0  0
   -2.5300    2.9073    1.6896 C   0  0  0  0  0  0  0  0  0  0  0  0
   -2.8818    3.7433    0.6401 C   0  0  0  0  0  0  0  0  0  0  0  0
   -2.7045    3.3130   -0.6538 C   0  0  0  0  0  0  0  0  0  0  0  0
   -1.4487   -2.5841    0.3491 C   0  0  2  0  0  0  0  0  0  0  0  0
   -0.0616   -2.6918    0.2320 O   0  0  0  0  0  0  0  0  0  0  0  0
   -2.1555   -2.8166   -0.9721 C   0  0  0  0  0  0  0  0  0  0  0  0
    3.2376    0.0769    2.2357 H   0  0  0  0  0  0  0  0  0  0  0  0
    5.5788    0.0167    1.5881 H   0  0  0  0  0  0  0  0  0  0  0  0
    6.2232   -0.2120   -0.7670 H   0  0  0  0  0  0  0  0  0  0  0  0
    4.4119   -0.3819   -2.4838 H   0  0  0  0  0  0  0  0  0  0  0  0
   -1.7698   -0.4574   -1.1084 H   0  0  0  0  0  0  0  0  0  0  0  0
   -2.8757   -1.0782    0.8373 H   0  0  0  0  0  0  0  0  0  0  0  0
   -1.4251   -1.0555    1.8439 H   0  0  0  0  0  0  0  0  0  0  0  0
    1.2906    0.1155    2.6868 H   0  0  0  0  0  0  0  0  0  0  0  0
   -2.0472    1.7362   -1.8841 H   0  0  0  0  0  0  0  0  0  0  0  0
   -1.7463    1.0326    2.2669 H   0  0  0  0  0  0  0  0  0  0  0  0
   -2.6826    3.2769    2.6904 H   0  0  0  0  0  0  0  0  0  0  0  0
   -3.2933    4.7277    0.8105 H   0  0  0  0  0  0  0  0  0  0  0  0
   -2.9751    3.9547   -1.5015 H   0  0  0  0  0  0  0  0  0  0  0  0
   -1.7434   -3.3354    1.1117 H   0  0  0  0  0  0  0  0  0  0  0  0
    0.2057   -2.9869   -0.6879 H   0  0  0  0  0  0  0  0  0  0  0  0
   -2.6154   -3.8342   -1.0061 H   0  0  0  0  0  0  0  0  0  0  0  0
   -1.4266   -2.7031   -1.7955 H   0  0  0  0  0  0  0  0  0  0  0  0
   -2.9882   -2.0905   -1.0932 H   0  0  0  0  0  0  0  0  0  0  0  0
  1  2  2  0
  1  5  1  0
  2  3  1  0
  3  4  2  0
  4  6  1  0
  5 11  1  0
  5  6  2  0
  6 13  1  0
  7 11  2  0
 13 14  1  0
  7 14  1  0
  7  9  1  0
  9  8  1  0
  8 16  2  0
  9 10  1  0
 11 12  1  0
 14 15  2  0
 17 18  2  0
 18 19  1  0
 19 20  2  0
  8 17  1  0
 16 20  1  0
 10 21  1  0
 21 22  1  0
 21 23  1  0
  1 24  1  0
  2 25  1  0
  3 26  1  0
  4 27  1  0
  9 28  1  6
 10 29  1  0
 10 30  1  0
 12 31  1  0
 16 32  1  0
 17 33  1  0
 18 34  1  0
 19 35  1  0
 20 36  1  0
 21 37  1  1
 22 38  1  0
 23 39  1  0
 23 40  1  0
 23 41  1  0
M  END

