99444390
     RDKit          3D

 28 30  0  0  0  0  0  0  0  0999 V2000
   -3.0663    0.5453    0.0410 C   0  0  0  0  0  0  0  0  0  0  0  0
   -3.9417   -0.4052   -0.3007 N   0  0  0  0  0  0  0  0  0  0  0  0
   -3.5615   -1.6415   -0.6794 C   0  0  0  0  0  0  0  0  0  0  0  0
   -2.2169   -1.9510   -0.7201 C   0  0  0  0  0  0  0  0  0  0  0  0
    1.0528   -1.9158   -0.5672 C   0  0  0  0  0  0  0  0  0  0  0  0
    2.3971   -1.6416   -0.4214 C   0  0  0  0  0  0  0  0  0  0  0  0
    2.8110   -0.3988   -0.0062 C   0  0  0  0  0  0  0  0  0  0  0  0
    1.8417    0.5497    0.2549 C   0  0  0  0  0  0  0  0  0  0  0  0
   -0.6141    1.0339    0.3033 N   0  0  0  0  0  0  0  0  0  0  0  0
    0.4939    0.2849    0.1119 C   0  0  0  0  0  0  0  0  0  0  0  0
   -1.7147    0.2938    0.0192 C   0  0  0  0  0  0  0  0  0  0  0  0
    0.0755   -0.9667   -0.3062 C   0  0  0  0  0  0  0  0  0  0  0  0
   -1.3031   -0.9784   -0.3696 C   0  0  0  0  0  0  0  0  0  0  0  0
   -3.4948    1.9164    0.4606 C   0  0  0  0  0  0  0  0  0  0  0  0
    4.1706   -0.1024    0.1473 O   0  0  0  0  0  0  0  0  0  0  0  0
    4.5560    1.1821    0.5745 C   0  0  0  0  0  0  0  0  0  0  0  0
   -4.2494   -2.4218   -0.9585 H   0  0  0  0  0  0  0  0  0  0  0  0
   -1.8830   -2.9484   -1.0244 H   0  0  0  0  0  0  0  0  0  0  0  0
    0.7189   -2.8784   -0.8893 H   0  0  0  0  0  0  0  0  0  0  0  0
    3.1527   -2.3879   -0.6272 H   0  0  0  0  0  0  0  0  0  0  0  0
    2.0974    1.5504    0.5858 H   0  0  0  0  0  0  0  0  0  0  0  0
   -0.6824    2.0272    0.6178 H   0  0  0  0  0  0  0  0  0  0  0  0
   -4.6030    1.9171    0.5194 H   0  0  0  0  0  0  0  0  0  0  0  0
   -3.1236    2.6346   -0.3043 H   0  0  0  0  0  0  0  0  0  0  0  0
   -3.0202    2.1713    1.4240 H   0  0  0  0  0  0  0  0  0  0  0  0
    4.0161    1.9667    0.0261 H   0  0  0  0  0  0  0  0  0  0  0  0
    4.4332    1.2766    1.6867 H   0  0  0  0  0  0  0  0  0  0  0  0
    5.6579    1.2880    0.4018 H   0  0  0  0  0  0  0  0  0  0  0  0
  9 10  1  0
  9 11  1  0
 10 12  2  0
  8 10  1  0
 11 13  1  0
  1 11  2  0
 12 13  1  0
  5 12  1  0
  4 13  2  0
  5  6  2  0
  3  4  1  0
  1  2  1  0
  7  8  2  0
  6  7  1  0
  2  3  2  0
  1 14  1  0
  7 15  1  0
 15 16  1  0
  3 17  1  0
  4 18  1  0
  5 19  1  0
  6 20  1  0
  8 21  1  0
  9 22  1  0
 14 23  1  0
 14 24  1  0
 14 25  1  0
 16 26  1  0
 16 27  1  0
 16 28  1  0
M  END

