99444552
     RDKit          3D

 36 36  0  0  1  0  0  0  0  0999 V2000
   -4.2886   -0.1581    0.3312 C   0  0  2  0  0  0  0  0  0  0  0  0
   -5.1962   -1.2924    0.1078 C   0  0  0  0  0  0  0  0  0  0  0  0
   -5.8304   -1.1492   -1.1206 O   0  0  0  0  0  0  0  0  0  0  0  0
   -5.3690   -0.0033   -1.8098 C   0  0  0  0  0  0  0  0  0  0  0  0
   -4.7760    0.8743   -0.7128 C   0  0  0  0  0  0  0  0  0  0  0  0
   -5.3855   -2.2524    0.8904 O   0  0  0  0  0  0  0  0  0  0  0  0
   -2.9247   -0.4409   -0.0275 N   0  0  0  0  0  0  0  0  0  0  0  0
   -1.8270   -0.1222    0.8027 C   0  0  0  0  0  0  0  0  0  0  0  0
   -0.4233   -0.4192    0.4160 C   0  0  0  0  0  0  0  0  0  0  0  0
    0.5730    0.0268    1.3976 C   0  0  0  0  0  0  0  0  0  0  0  0
    2.0129   -0.1859    1.1130 C   0  0  0  0  0  0  0  0  0  0  0  0
    2.3773    0.1341   -0.2989 C   0  0  0  0  0  0  0  0  0  0  0  0
    3.8454   -0.1108   -0.5308 C   0  0  0  0  0  0  0  0  0  0  0  0
    4.7586    0.7039    0.3238 C   0  0  0  0  0  0  0  0  0  0  0  0
    6.1939    0.3325   -0.0608 C   0  0  0  0  0  0  0  0  0  0  0  0
   -1.9913    0.4352    1.9203 O   0  0  0  0  0  0  0  0  0  0  0  0
    0.2240    0.5581    2.4180 O   0  0  0  0  0  0  0  0  0  0  0  0
   -4.3962    0.2739    1.3488 H   0  0  0  0  0  0  0  0  0  0  0  0
   -6.2465    0.5316   -2.2229 H   0  0  0  0  0  0  0  0  0  0  0  0
   -4.5982   -0.2208   -2.5657 H   0  0  0  0  0  0  0  0  0  0  0  0
   -5.5121    1.5339   -0.2355 H   0  0  0  0  0  0  0  0  0  0  0  0
   -3.9320    1.4912   -1.0749 H   0  0  0  0  0  0  0  0  0  0  0  0
   -2.7431   -0.9008   -0.9368 H   0  0  0  0  0  0  0  0  0  0  0  0
   -0.2413    0.0396   -0.5823 H   0  0  0  0  0  0  0  0  0  0  0  0
   -0.3076   -1.5367    0.3426 H   0  0  0  0  0  0  0  0  0  0  0  0
    2.6601    0.4379    1.7808 H   0  0  0  0  0  0  0  0  0  0  0  0
    2.3305   -1.2474    1.3126 H   0  0  0  0  0  0  0  0  0  0  0  0
    2.1829    1.2259   -0.4993 H   0  0  0  0  0  0  0  0  0  0  0  0
    1.7830   -0.4188   -1.0461 H   0  0  0  0  0  0  0  0  0  0  0  0
    4.1220    0.0364   -1.6067 H   0  0  0  0  0  0  0  0  0  0  0  0
    4.0689   -1.1889   -0.3178 H   0  0  0  0  0  0  0  0  0  0  0  0
    4.6339    0.4699    1.4034 H   0  0  0  0  0  0  0  0  0  0  0  0
    4.6353    1.7969    0.1649 H   0  0  0  0  0  0  0  0  0  0  0  0
    6.3837   -0.6881    0.3154 H   0  0  0  0  0  0  0  0  0  0  0  0
    6.2788    0.3950   -1.1805 H   0  0  0  0  0  0  0  0  0  0  0  0
    6.9247    1.0388    0.3429 H   0  0  0  0  0  0  0  0  0  0  0  0
  1  2  1  0
  1  5  1  0
  1  7  1  0
  2  3  1  0
  2  6  2  0
  3  4  1  0
  4  5  1  0
  7  8  1  0
  8  9  1  0
  8 16  2  0
  9 10  1  0
 10 11  1  0
 10 17  2  0
 11 12  1  0
 12 13  1  0
 13 14  1  0
 14 15  1  0
  1 18  1  1
  4 19  1  0
  4 20  1  0
  5 21  1  0
  5 22  1  0
  7 23  1  0
  9 24  1  0
  9 25  1  0
 11 26  1  0
 11 27  1  0
 12 28  1  0
 12 29  1  0
 13 30  1  0
 13 31  1  0
 14 32  1  0
 14 33  1  0
 15 34  1  0
 15 35  1  0
 15 36  1  0
M  END

