99443528
     RDKit          3D

 27 28  0  0  1  0  0  0  0  0999 V2000
    0.1769    0.5277    2.7973 O   0  0  0  0  0  0  0  0  0  0  0  0
    0.7287    0.4891    1.6816 C   0  0  0  0  0  0  0  0  0  0  0  0
    2.1678    0.7193    1.4088 C   0  0  0  0  0  0  0  0  0  0  0  0
    0.0825    0.2151    0.4486 N   0  0  0  0  0  0  0  0  0  0  0  0
    1.0877    0.3537   -0.6215 C   0  0  0  0  0  0  0  0  0  0  0  0
    2.3151   -0.1367    0.1453 C   0  0  1  0  0  0  0  0  0  0  0  0
    3.5631    0.0930   -0.5599 C   0  0  0  0  0  0  0  0  0  0  0  0
    3.7753   -0.6479   -1.7296 O   0  0  0  0  0  0  0  0  0  0  0  0
    4.4527    0.9015   -0.1962 O   0  0  0  0  0  0  0  0  0  0  0  0
   -1.2550   -0.1358    0.1596 C   0  0  0  0  0  0  0  0  0  0  0  0
   -2.2386    0.8067    0.3547 C   0  0  0  0  0  0  0  0  0  0  0  0
   -1.9128    2.0768    0.8289 O   0  0  0  0  0  0  0  0  0  0  0  0
   -3.5485    0.4887    0.0786 C   0  0  0  0  0  0  0  0  0  0  0  0
   -3.8443   -0.7797   -0.3914 C   0  0  0  0  0  0  0  0  0  0  0  0
   -2.8753   -1.7243   -0.5895 C   0  0  0  0  0  0  0  0  0  0  0  0
   -1.5655   -1.4000   -0.3111 C   0  0  0  0  0  0  0  0  0  0  0  0
    2.2682    1.7990    1.1552 H   0  0  0  0  0  0  0  0  0  0  0  0
    2.8398    0.3711    2.1875 H   0  0  0  0  0  0  0  0  0  0  0  0
    0.8484   -0.2354   -1.4993 H   0  0  0  0  0  0  0  0  0  0  0  0
    1.1655    1.4569   -0.8016 H   0  0  0  0  0  0  0  0  0  0  0  0
    2.1285   -1.1805    0.4384 H   0  0  0  0  0  0  0  0  0  0  0  0
    3.6719   -1.6733   -1.7237 H   0  0  0  0  0  0  0  0  0  0  0  0
   -0.9491    2.2966    1.0271 H   0  0  0  0  0  0  0  0  0  0  0  0
   -4.3329    1.2300    0.2307 H   0  0  0  0  0  0  0  0  0  0  0  0
   -4.8529   -1.0412   -0.6099 H   0  0  0  0  0  0  0  0  0  0  0  0
   -3.1111   -2.7205   -0.9616 H   0  0  0  0  0  0  0  0  0  0  0  0
   -0.7861   -2.1497   -0.4658 H   0  0  0  0  0  0  0  0  0  0  0  0
  1  2  2  0
  2  4  1  0
  2  3  1  0
  4 10  1  0
  4  5  1  0
  3  6  1  0
  5  6  1  0
  6  7  1  0
  7  8  1  0
  7  9  2  0
 10 11  2  0
 10 16  1  0
 11 13  1  0
 11 12  1  0
 13 14  2  0
 14 15  1  0
 15 16  2  0
  3 17  1  0
  3 18  1  0
  5 19  1  0
  5 20  1  0
  6 21  1  1
  8 22  1  0
 12 23  1  0
 13 24  1  0
 14 25  1  0
 15 26  1  0
 16 27  1  0
M  END

