99444738
     RDKit          3D

 38 41  0  0  0  0  0  0  0  0999 V2000
    1.5495   -1.0275   -0.1833 C   0  0  0  0  0  0  0  0  0  0  0  0
    0.5601    0.0753   -0.0015 C   0  0  0  0  0  0  0  0  0  0  0  0
   -0.8485   -0.3804   -0.0697 C   0  0  0  0  0  0  0  0  0  0  0  0
   -1.8644    0.5385    0.0703 C   0  0  0  0  0  0  0  0  0  0  0  0
   -1.5448    1.8288    0.2647 N   0  0  0  0  0  0  0  0  0  0  0  0
   -2.5283    2.7313    0.4021 C   0  0  0  0  0  0  0  0  0  0  0  0
   -2.1464    4.0931    0.6071 N   0  0  0  0  0  0  0  0  0  0  0  0
   -3.8438    2.4137    0.3557 N   0  0  0  0  0  0  0  0  0  0  0  0
   -4.2021    1.1402    0.1639 C   0  0  0  0  0  0  0  0  0  0  0  0
   -5.4014    0.8025    0.1144 O   0  0  0  0  0  0  0  0  0  0  0  0
   -3.2182    0.1929    0.0197 C   0  0  0  0  0  0  0  0  0  0  0  0
   -3.5315   -1.1306   -0.1797 C   0  0  0  0  0  0  0  0  0  0  0  0
   -2.5477   -2.0730   -0.3232 C   0  0  0  0  0  0  0  0  0  0  0  0
   -2.5952   -3.3945   -0.5226 N   0  0  0  0  0  0  0  0  0  0  0  0
   -1.3273   -3.8492   -0.5926 C   0  0  0  0  0  0  0  0  0  0  0  0
   -0.4821   -2.8140   -0.4374 N   0  0  0  0  0  0  0  0  0  0  0  0
   -1.2085   -1.6968   -0.2681 C   0  0  0  0  0  0  0  0  0  0  0  0
    2.9104   -0.4352   -0.0910 C   0  0  0  0  0  0  0  0  0  0  0  0
    3.5771    0.0431   -1.1929 C   0  0  0  0  0  0  0  0  0  0  0  0
    4.8462    0.5849   -1.0433 C   0  0  0  0  0  0  0  0  0  0  0  0
    5.4563    0.6556    0.1849 C   0  0  0  0  0  0  0  0  0  0  0  0
    4.7986    0.1804    1.2914 C   0  0  0  0  0  0  0  0  0  0  0  0
    3.5439   -0.3546    1.1399 C   0  0  0  0  0  0  0  0  0  0  0  0
    1.4052   -1.5596   -1.1532 H   0  0  0  0  0  0  0  0  0  0  0  0
    1.4466   -1.7301    0.6814 H   0  0  0  0  0  0  0  0  0  0  0  0
    0.6934    0.7767   -0.8770 H   0  0  0  0  0  0  0  0  0  0  0  0
    0.7792    0.6520    0.9004 H   0  0  0  0  0  0  0  0  0  0  0  0
   -2.5979    4.6889    1.3280 H   0  0  0  0  0  0  0  0  0  0  0  0
   -1.3949    4.5269    0.0296 H   0  0  0  0  0  0  0  0  0  0  0  0
   -4.5236    3.1965    0.4747 H   0  0  0  0  0  0  0  0  0  0  0  0
   -4.5960   -1.3707   -0.2148 H   0  0  0  0  0  0  0  0  0  0  0  0
   -3.4416   -4.0006   -0.6130 H   0  0  0  0  0  0  0  0  0  0  0  0
   -0.9913   -4.8642   -0.7462 H   0  0  0  0  0  0  0  0  0  0  0  0
    3.1100   -0.0060   -2.1630 H   0  0  0  0  0  0  0  0  0  0  0  0
    5.3823    0.9642   -1.8961 H   0  0  0  0  0  0  0  0  0  0  0  0
    6.4512    1.0842    0.2779 H   0  0  0  0  0  0  0  0  0  0  0  0
    5.2835    0.2400    2.2464 H   0  0  0  0  0  0  0  0  0  0  0  0
    3.0417   -0.7225    2.0160 H   0  0  0  0  0  0  0  0  0  0  0  0
  1  2  1  0
  1 18  1  0
  2  3  1  0
  3  4  2  0
  3 17  1  0
  4  5  1  0
  4 11  1  0
  5  6  2  0
  6  7  1  0
  6  8  1  0
  8  9  1  0
  9 10  2  0
  9 11  1  0
 11 12  2  0
 12 13  1  0
 13 14  1  0
 13 17  2  0
 14 15  1  0
 15 16  2  0
 16 17  1  0
 18 19  2  0
 18 23  1  0
 19 20  1  0
 20 21  2  0
 21 22  1  0
 22 23  2  0
  1 24  1  0
  1 25  1  0
  2 26  1  0
  2 27  1  0
  7 28  1  0
  7 29  1  0
  8 30  1  0
 12 31  1  0
 14 32  1  0
 15 33  1  0
 19 34  1  0
 20 35  1  0
 21 36  1  0
 22 37  1  0
 23 38  1  0
M  END

