99445145
     RDKit          3D

 54 59  0  0  1  0  0  0  0  0999 V2000
    2.6978   -0.8070    0.2955 C   0  0  0  0  0  0  0  0  0  0  0  0
    3.0775    0.2701    1.1309 C   0  0  0  0  0  0  0  0  0  0  0  0
    3.7799   -1.4731   -0.2952 C   0  0  0  0  0  0  0  0  0  0  0  0
    1.4018   -1.2243    0.0026 C   0  0  0  0  0  0  0  0  0  0  0  0
    2.1969    1.1677    1.8263 N   0  0  0  0  0  0  0  0  0  0  0  0
    4.4221    0.5618    1.2923 C   0  0  0  0  0  0  0  0  0  0  0  0
    3.6145   -2.5479   -1.1759 C   0  0  0  0  0  0  0  0  0  0  0  0
    5.1058   -1.1481   -0.1053 C   0  0  0  0  0  0  0  0  0  0  0  0
    1.2441   -2.2869   -0.8733 C   0  0  0  0  0  0  0  0  0  0  0  0
    2.3537    2.6095    2.0304 C   0  0  0  0  0  0  0  0  0  0  0  0
    0.9279    0.9414    2.4141 C   0  0  0  0  0  0  0  0  0  0  0  0
    5.4506   -0.1136    0.7013 C   0  0  0  0  0  0  0  0  0  0  0  0
    2.3445   -2.9299   -1.4454 C   0  0  0  0  0  0  0  0  0  0  0  0
    0.0465   -2.8839   -1.3365 O   0  0  0  0  0  0  0  0  0  0  0  0
    1.0724    3.2161    1.5864 C   0  0  0  0  0  0  0  0  0  0  0  0
    0.1100    2.0968    1.8338 C   0  0  1  0  0  0  0  0  0  0  0  0
   -1.2964   -2.4918   -1.1702 C   0  0  0  0  0  0  0  0  0  0  0  0
   -2.0833   -3.5102   -0.6540 C   0  0  0  0  0  0  0  0  0  0  0  0
   -1.8359   -1.2298   -1.4524 C   0  0  0  0  0  0  0  0  0  0  0  0
   -1.9622    1.4793    0.6755 C   0  0  0  0  0  0  0  0  0  0  0  0
   -3.4174   -3.3523   -0.3818 C   0  0  0  0  0  0  0  0  0  0  0  0
   -1.5816   -4.8533   -0.3703 C   0  0  0  0  0  0  0  0  0  0  0  0
   -3.1518   -1.0346   -1.1905 C   0  0  0  0  0  0  0  0  0  0  0  0
   -2.6380    2.0395   -0.5382 C   0  0  0  0  0  0  0  0  0  0  0  0
   -3.9182   -2.1179   -0.6550 C   0  0  0  0  0  0  0  0  0  0  0  0
   -1.1610   -5.9086   -0.1540 N   0  0  0  0  0  0  0  0  0  0  0  0
   -4.0421    0.1454   -1.2988 C   0  0  0  0  0  0  0  0  0  0  0  0
   -3.5045    1.4617   -1.3468 N   0  0  0  0  0  0  0  0  0  0  0  0
   -2.4335    3.3412   -1.0280 C   0  0  0  0  0  0  0  0  0  0  0  0
   -3.8469    2.3699   -2.3300 C   0  0  0  0  0  0  0  0  0  0  0  0
   -3.1860    3.4833   -2.1066 N   0  0  0  0  0  0  0  0  0  0  0  0
    0.2639    0.2131    3.1719 O   0  0  0  0  0  0  0  0  0  0  0  0
   -0.5658    1.7340    0.6533 N   0  0  0  0  0  0  0  0  0  0  0  0
    0.4794   -0.7597    0.4688 H   0  0  0  0  0  0  0  0  0  0  0  0
    4.7492    1.3955    1.9338 H   0  0  0  0  0  0  0  0  0  0  0  0
    4.4665   -3.0550   -1.6245 H   0  0  0  0  0  0  0  0  0  0  0  0
    5.9218   -1.6973   -0.5852 H   0  0  0  0  0  0  0  0  0  0  0  0
    3.1693    3.0427    1.4215 H   0  0  0  0  0  0  0  0  0  0  0  0
    2.5393    2.8356    3.1011 H   0  0  0  0  0  0  0  0  0  0  0  0
    6.4939    0.1491    0.8570 H   0  0  0  0  0  0  0  0  0  0  0  0
    2.2491   -3.7808   -2.1451 H   0  0  0  0  0  0  0  0  0  0  0  0
    0.8643    4.0876    2.2701 H   0  0  0  0  0  0  0  0  0  0  0  0
    1.0809    3.5541    0.5277 H   0  0  0  0  0  0  0  0  0  0  0  0
   -0.6382    2.4699    2.5621 H   0  0  0  0  0  0  0  0  0  0  0  0
   -1.1815   -0.4396   -1.9421 H   0  0  0  0  0  0  0  0  0  0  0  0
   -2.2510    0.4508    0.7947 H   0  0  0  0  0  0  0  0  0  0  0  0
   -2.3686    2.0165    1.5884 H   0  0  0  0  0  0  0  0  0  0  0  0
   -4.0271   -4.1583    0.0229 H   0  0  0  0  0  0  0  0  0  0  0  0
   -4.9925   -1.9741   -0.4389 H   0  0  0  0  0  0  0  0  0  0  0  0
   -4.7625    0.2092   -0.4249 H   0  0  0  0  0  0  0  0  0  0  0  0
   -4.7239   -0.1139   -2.1499 H   0  0  0  0  0  0  0  0  0  0  0  0
   -1.7695    4.0977   -0.5916 H   0  0  0  0  0  0  0  0  0  0  0  0
   -4.5314    2.2293   -3.1527 H   0  0  0  0  0  0  0  0  0  0  0  0
   -0.2527    2.2231   -0.1994 H   0  0  0  0  0  0  0  0  0  0  0  0
  1  2  1  0
  1  3  1  0
  1  4  2  0
  2  5  1  0
  2  6  2  0
  3  7  2  0
  3  8  1  0
  4  9  1  0
  5 10  1  0
  5 11  1  0
  6 12  1  0
  7 13  1  0
  8 12  2  0
  9 13  2  0
  9 14  1  0
 10 15  1  0
 11 16  1  0
 11 32  2  0
 14 17  1  0
 15 16  1  0
 16 33  1  0
 17 18  2  0
 17 19  1  0
 18 21  1  0
 18 22  1  0
 19 23  2  0
 20 24  1  0
 20 33  1  0
 21 25  2  0
 22 26  3  0
 23 25  1  0
 23 27  1  0
 24 28  1  0
 24 29  2  0
 27 28  1  0
 28 30  1  0
 29 31  1  0
 30 31  2  0
  4 34  1  0
  6 35  1  0
  7 36  1  0
  8 37  1  0
 10 38  1  0
 10 39  1  0
 12 40  1  0
 13 41  1  0
 15 42  1  0
 15 43  1  0
 16 44  1  1
 19 45  1  0
 20 46  1  0
 20 47  1  0
 21 48  1  0
 25 49  1  0
 27 50  1  0
 27 51  1  0
 29 52  1  0
 30 53  1  0
 33 54  1  0
M  END

