99444799
     RDKit          3D

 54 53  0  0  1  0  0  0  0  0999 V2000
   -5.1896    3.4172    2.4784 O   0  0  0  0  0  0  0  0  0  0  0  0
   -4.9672    2.1159    2.0041 C   0  0  0  0  0  0  0  0  0  0  0  0
   -5.5586    1.1160    2.9619 C   0  0  0  0  0  0  0  0  0  0  0  0
   -5.3243   -0.2136    2.4605 N   0  0  0  0  0  0  0  0  0  0  0  0
   -4.0412   -0.7462    2.2564 C   0  0  0  0  0  0  0  0  0  0  0  0
   -3.0168   -0.0775    2.5097 O   0  0  0  0  0  0  0  0  0  0  0  0
   -3.8885   -2.1179    1.7343 C   0  0  0  0  0  0  0  0  0  0  0  0
   -2.4272   -2.4649    1.6004 C   0  0  0  0  0  0  0  0  0  0  0  0
   -1.7851   -1.5505    0.6961 N   0  0  0  0  0  0  0  0  0  0  0  0
   -0.3958   -1.6594    0.3935 C   0  0  0  0  0  0  0  0  0  0  0  0
    0.2595   -2.5768    0.9369 O   0  0  0  0  0  0  0  0  0  0  0  0
    0.2548   -0.7230   -0.5304 C   0  0  2  0  0  0  0  0  0  0  0  0
   -0.5945    0.2258   -1.0430 O   0  0  0  0  0  0  0  0  0  0  0  0
    0.9677   -1.4956   -1.6396 C   0  0  0  0  0  0  0  0  0  0  0  0
    1.9916   -2.3761   -0.9764 C   0  0  0  0  0  0  0  0  0  0  0  0
    0.0063   -2.2470   -2.5121 C   0  0  0  0  0  0  0  0  0  0  0  0
    1.7012   -0.4845   -2.5275 C   0  0  0  0  0  0  0  0  0  0  0  0
    2.6252    0.2039   -1.7151 O   0  0  0  0  0  0  0  0  0  0  0  0
    3.4661    1.1889   -2.1584 C   0  0  0  0  0  0  0  0  0  0  0  0
    3.4402    1.5287   -3.3660 O   0  0  0  0  0  0  0  0  0  0  0  0
    4.3879    1.8265   -1.1861 C   0  0  0  0  0  0  0  0  0  0  0  0
    5.2894    0.7473   -0.6148 C   0  0  0  0  0  0  0  0  0  0  0  0
    5.2720    2.8560   -1.8308 C   0  0  0  0  0  0  0  0  0  0  0  0
    3.5521    2.4303   -0.0911 C   0  0  0  0  0  0  0  0  0  0  0  0
   -5.7598    3.9342    1.8407 H   0  0  0  0  0  0  0  0  0  0  0  0
   -3.9079    1.9151    1.8609 H   0  0  0  0  0  0  0  0  0  0  0  0
   -5.4994    1.9848    1.0274 H   0  0  0  0  0  0  0  0  0  0  0  0
   -5.0972    1.2183    3.9688 H   0  0  0  0  0  0  0  0  0  0  0  0
   -6.6623    1.3034    3.0076 H   0  0  0  0  0  0  0  0  0  0  0  0
   -6.1775   -0.8178    2.2355 H   0  0  0  0  0  0  0  0  0  0  0  0
   -4.3455   -2.8818    2.4138 H   0  0  0  0  0  0  0  0  0  0  0  0
   -4.3692   -2.2297    0.7401 H   0  0  0  0  0  0  0  0  0  0  0  0
   -1.9568   -2.3544    2.6111 H   0  0  0  0  0  0  0  0  0  0  0  0
   -2.3105   -3.4981    1.2114 H   0  0  0  0  0  0  0  0  0  0  0  0
   -2.3669   -0.7929    0.2588 H   0  0  0  0  0  0  0  0  0  0  0  0
    1.0604   -0.1826    0.0282 H   0  0  0  0  0  0  0  0  0  0  0  0
   -0.7608    0.9879   -0.4616 H   0  0  0  0  0  0  0  0  0  0  0  0
    1.6379   -3.3924   -0.7671 H   0  0  0  0  0  0  0  0  0  0  0  0
    2.8531   -2.4579   -1.6784 H   0  0  0  0  0  0  0  0  0  0  0  0
    2.3593   -1.8584   -0.0711 H   0  0  0  0  0  0  0  0  0  0  0  0
   -0.0659   -1.8216   -3.5479 H   0  0  0  0  0  0  0  0  0  0  0  0
   -1.0117   -2.3079   -2.0861 H   0  0  0  0  0  0  0  0  0  0  0  0
    0.4146   -3.2732   -2.6509 H   0  0  0  0  0  0  0  0  0  0  0  0
    0.9603    0.2759   -2.8781 H   0  0  0  0  0  0  0  0  0  0  0  0
    2.1388   -0.9631   -3.4055 H   0  0  0  0  0  0  0  0  0  0  0  0
    6.0698    1.1525    0.0460 H   0  0  0  0  0  0  0  0  0  0  0  0
    5.7105    0.1042   -1.4163 H   0  0  0  0  0  0  0  0  0  0  0  0
    4.6572    0.0615    0.0128 H   0  0  0  0  0  0  0  0  0  0  0  0
    5.9677    2.3707   -2.5375 H   0  0  0  0  0  0  0  0  0  0  0  0
    5.8506    3.3467   -1.0166 H   0  0  0  0  0  0  0  0  0  0  0  0
    4.6955    3.6703   -2.3259 H   0  0  0  0  0  0  0  0  0  0  0  0
    2.7043    2.9730   -0.5771 H   0  0  0  0  0  0  0  0  0  0  0  0
    3.0693    1.5731    0.4529 H   0  0  0  0  0  0  0  0  0  0  0  0
    4.1162    3.0363    0.6172 H   0  0  0  0  0  0  0  0  0  0  0  0
  1  2  1  0
  2  3  1  0
  3  4  1  0
  4  5  1  0
  5  6  2  0
  5  7  1  0
  7  8  1  0
  8  9  1  0
  9 10  1  0
 10 11  2  0
 10 12  1  0
 12 13  1  0
 12 14  1  0
 14 15  1  0
 14 16  1  0
 14 17  1  0
 17 18  1  0
 18 19  1  0
 19 20  2  0
 19 21  1  0
 21 22  1  0
 21 23  1  0
 21 24  1  0
  1 25  1  0
  2 26  1  0
  2 27  1  0
  3 28  1  0
  3 29  1  0
  4 30  1  0
  7 31  1  0
  7 32  1  0
  8 33  1  0
  8 34  1  0
  9 35  1  0
 12 36  1  1
 13 37  1  0
 15 38  1  0
 15 39  1  0
 15 40  1  0
 16 41  1  0
 16 42  1  0
 16 43  1  0
 17 44  1  0
 17 45  1  0
 22 46  1  0
 22 47  1  0
 22 48  1  0
 23 49  1  0
 23 50  1  0
 23 51  1  0
 24 52  1  0
 24 53  1  0
 24 54  1  0
M  END

