99444286
     RDKit          3D

 48 52  0  0  1  0  0  0  0  0999 V2000
   -2.3783    0.5940    0.5927 C   0  0  1  0  0  0  0  0  0  0  0  0
   -3.5083   -0.2285    0.0734 C   0  0  2  0  0  0  0  0  0  0  0  0
   -3.1597   -1.6723   -0.1486 C   0  0  0  0  0  0  0  0  0  0  0  0
   -1.7907   -1.8971   -0.6907 C   0  0  0  0  0  0  0  0  0  0  0  0
    1.4128   -2.1643    0.4087 C   0  0  0  0  0  0  0  0  0  0  0  0
    2.8969   -1.9101    0.2414 C   0  0  0  0  0  0  0  0  0  0  0  0
    3.2734   -0.5056    0.6426 C   0  0  1  0  0  0  0  0  0  0  0  0
    3.4844    0.2904   -0.5825 C   0  0  0  0  0  0  0  0  0  0  0  0
    2.1325    0.5934   -1.1144 C   0  0  0  0  0  0  0  0  0  0  0  0
   -0.8303   -1.0465    0.1000 C   0  0  2  0  0  0  0  0  0  0  0  0
    2.0343    0.1405    1.2219 C   0  0  0  0  0  0  0  0  0  0  0  0
   -1.1783    0.4018   -0.2812 C   0  0  2  0  0  0  0  0  0  0  0  0
    0.5748   -1.1483   -0.2994 C   0  0  1  0  0  0  0  0  0  0  0  0
    0.0253    1.1897    0.1656 C   0  0  1  0  0  0  0  0  0  0  0  0
    1.1547    0.2342   -0.0109 C   0  0  2  0  0  0  0  0  0  0  0  0
   -4.0271    0.3481   -1.0886 O   0  0  0  0  0  0  0  0  0  0  0  0
   -2.7894    2.0090    0.7704 C   0  0  0  0  0  0  0  0  0  0  0  0
    0.1958    2.3295   -0.7447 C   0  0  0  0  0  0  0  0  0  0  0  0
   -0.4906    2.3699   -1.7913 O   0  0  0  0  0  0  0  0  0  0  0  0
    1.0864    3.3930   -0.5228 O   0  0  0  0  0  0  0  0  0  0  0  0
    4.6341    0.6534   -1.0926 C   0  0  0  0  0  0  0  0  0  0  0  0
   -1.1303   -1.1264    1.4545 O   0  0  0  0  0  0  0  0  0  0  0  0
   -1.9188   -0.0410    1.8726 C   0  0  0  0  0  0  0  0  0  0  0  0
   -2.1870    0.3265    3.0250 O   0  0  0  0  0  0  0  0  0  0  0  0
   -4.3255   -0.2019    0.8311 H   0  0  0  0  0  0  0  0  0  0  0  0
   -3.2732   -2.2627    0.7990 H   0  0  0  0  0  0  0  0  0  0  0  0
   -3.8974   -2.0982   -0.8593 H   0  0  0  0  0  0  0  0  0  0  0  0
   -1.7553   -1.5621   -1.7655 H   0  0  0  0  0  0  0  0  0  0  0  0
   -1.5511   -2.9725   -0.5925 H   0  0  0  0  0  0  0  0  0  0  0  0
    1.2284   -3.1440   -0.1263 H   0  0  0  0  0  0  0  0  0  0  0  0
    1.1218   -2.3694    1.4538 H   0  0  0  0  0  0  0  0  0  0  0  0
    3.4247   -2.6760    0.8403 H   0  0  0  0  0  0  0  0  0  0  0  0
    3.1337   -2.1169   -0.8358 H   0  0  0  0  0  0  0  0  0  0  0  0
    4.1301   -0.4750    1.3375 H   0  0  0  0  0  0  0  0  0  0  0  0
    1.9138   -0.0963   -1.9760 H   0  0  0  0  0  0  0  0  0  0  0  0
    2.0348    1.5976   -1.5114 H   0  0  0  0  0  0  0  0  0  0  0  0
    2.3172    1.1605    1.5576 H   0  0  0  0  0  0  0  0  0  0  0  0
    1.6551   -0.4973    2.0111 H   0  0  0  0  0  0  0  0  0  0  0  0
   -1.4513    0.5125   -1.3268 H   0  0  0  0  0  0  0  0  0  0  0  0
    0.6008   -1.3274   -1.4070 H   0  0  0  0  0  0  0  0  0  0  0  0
   -0.0750    1.5159    1.2322 H   0  0  0  0  0  0  0  0  0  0  0  0
   -4.9032    0.7682   -0.9369 H   0  0  0  0  0  0  0  0  0  0  0  0
   -1.9939    2.7465    0.5070 H   0  0  0  0  0  0  0  0  0  0  0  0
   -3.6568    2.2138    0.0881 H   0  0  0  0  0  0  0  0  0  0  0  0
   -3.1413    2.2098    1.7948 H   0  0  0  0  0  0  0  0  0  0  0  0
    0.7141    4.3223   -0.6907 H   0  0  0  0  0  0  0  0  0  0  0  0
    4.6654    1.2378   -1.9977 H   0  0  0  0  0  0  0  0  0  0  0  0
    5.5675    0.3813   -0.6277 H   0  0  0  0  0  0  0  0  0  0  0  0
 10 13  1  0
 10 12  1  0
  1 12  1  0
 12 14  1  0
  3  4  1  0
  1  2  1  0
  2  3  1  0
  5 13  1  0
 13 15  1  0
 14 15  1  0
 15 11  1  0
 15  9  1  6
  5  6  1  0
  6  7  1  0
  7 11  1  0
  7  8  1  0
  8  9  1  0
  2 16  1  0
  1 17  1  1
 18 19  2  0
 18 20  1  0
 14 18  1  0
  8 21  2  3
 10 22  1  1
  1 23  1  0
 23 24  2  0
 22 23  1  0
  4 10  1  0
  2 25  1  1
  3 26  1  0
  3 27  1  0
  4 28  1  0
  4 29  1  0
  5 30  1  0
  5 31  1  0
  6 32  1  0
  6 33  1  0
  7 34  1  1
  9 35  1  0
  9 36  1  0
 11 37  1  0
 11 38  1  0
 12 39  1  6
 13 40  1  6
 14 41  1  1
 16 42  1  0
 17 43  1  0
 17 44  1  0
 17 45  1  0
 20 46  1  0
 21 47  1  0
 21 48  1  0
M  END

