99443859
     RDKit          3D

 40 41  0  0  0  0  0  0  0  0999 V2000
   -4.6323   -1.8091   -0.9077 C   0  0  0  0  0  0  0  0  0  0  0  0
   -4.3962   -0.6709    0.0216 C   0  0  0  0  0  0  0  0  0  0  0  0
   -5.3093   -0.2467    0.9398 C   0  0  0  0  0  0  0  0  0  0  0  0
   -5.0423    0.8105    1.7757 C   0  0  0  0  0  0  0  0  0  0  0  0
   -2.8971    1.0559    0.7803 C   0  0  0  0  0  0  0  0  0  0  0  0
   -3.1729   -0.0034   -0.0530 C   0  0  0  0  0  0  0  0  0  0  0  0
   -0.6481    1.2759   -0.2087 C   0  0  0  0  0  0  0  0  0  0  0  0
   -0.1887   -0.0890    0.2033 C   0  0  0  0  0  0  0  0  0  0  0  0
    1.2305   -0.0380    0.7937 C   0  0  0  0  0  0  0  0  0  0  0  0
   -3.8567    1.4273    1.6754 N   0  0  0  0  0  0  0  0  0  0  0  0
   -1.6571    1.7302    0.7167 N   0  0  0  0  0  0  0  0  0  0  0  0
    2.0875    0.4358   -0.2487 N   0  0  0  0  0  0  0  0  0  0  0  0
    1.7243    1.6696   -0.9173 C   0  0  0  0  0  0  0  0  0  0  0  0
    0.4810    2.2757   -0.3007 C   0  0  0  0  0  0  0  0  0  0  0  0
    3.2690   -0.2270   -0.6672 C   0  0  0  0  0  0  0  0  0  0  0  0
    3.9860    0.2338   -1.5891 O   0  0  0  0  0  0  0  0  0  0  0  0
    3.6960   -1.4176   -0.0825 O   0  0  0  0  0  0  0  0  0  0  0  0
    4.8556   -2.1066   -0.4635 C   0  0  0  0  0  0  0  0  0  0  0  0
    6.1163   -1.2875   -0.2967 C   0  0  0  0  0  0  0  0  0  0  0  0
   -5.2015   -1.3851   -1.7792 H   0  0  0  0  0  0  0  0  0  0  0  0
   -3.7047   -2.2582   -1.2704 H   0  0  0  0  0  0  0  0  0  0  0  0
   -5.3138   -2.5520   -0.4025 H   0  0  0  0  0  0  0  0  0  0  0  0
   -6.2530   -0.7675    0.9919 H   0  0  0  0  0  0  0  0  0  0  0  0
   -5.7744    1.1606    2.5209 H   0  0  0  0  0  0  0  0  0  0  0  0
   -2.4618   -0.3525   -0.7970 H   0  0  0  0  0  0  0  0  0  0  0  0
   -1.1085    1.2017   -1.2350 H   0  0  0  0  0  0  0  0  0  0  0  0
   -0.1272   -0.7692   -0.6715 H   0  0  0  0  0  0  0  0  0  0  0  0
   -0.8815   -0.5090    0.9625 H   0  0  0  0  0  0  0  0  0  0  0  0
    1.4563   -1.0650    1.1289 H   0  0  0  0  0  0  0  0  0  0  0  0
    1.1980    0.6717    1.6658 H   0  0  0  0  0  0  0  0  0  0  0  0
   -1.4348    2.5560    1.3194 H   0  0  0  0  0  0  0  0  0  0  0  0
    1.5443    1.4278   -1.9844 H   0  0  0  0  0  0  0  0  0  0  0  0
    2.5200    2.4332   -0.8587 H   0  0  0  0  0  0  0  0  0  0  0  0
    0.1982    3.1427   -0.9069 H   0  0  0  0  0  0  0  0  0  0  0  0
    0.7327    2.6223    0.7095 H   0  0  0  0  0  0  0  0  0  0  0  0
    4.8022   -2.4940   -1.5065 H   0  0  0  0  0  0  0  0  0  0  0  0
    4.9481   -2.9913    0.1926 H   0  0  0  0  0  0  0  0  0  0  0  0
    5.7925   -0.2362   -0.1251 H   0  0  0  0  0  0  0  0  0  0  0  0
    6.7390   -1.2696   -1.2154 H   0  0  0  0  0  0  0  0  0  0  0  0
    6.6843   -1.5853    0.5998 H   0  0  0  0  0  0  0  0  0  0  0  0
  1  2  1  0
  2  3  2  0
  2  6  1  0
  3  4  1  0
  4 10  2  0
  5  6  2  0
  5 10  1  0
  5 11  1  0
  7  8  1  0
  7 11  1  0
  7 14  1  0
  8  9  1  0
  9 12  1  0
 12 13  1  0
 12 15  1  0
 13 14  1  0
 15 16  2  0
 15 17  1  0
 17 18  1  0
 18 19  1  0
  1 20  1  0
  1 21  1  0
  1 22  1  0
  3 23  1  0
  4 24  1  0
  6 25  1  0
  7 26  1  0
  8 27  1  0
  8 28  1  0
  9 29  1  0
  9 30  1  0
 11 31  1  0
 13 32  1  0
 13 33  1  0
 14 34  1  0
 14 35  1  0
 18 36  1  0
 18 37  1  0
 19 38  1  0
 19 39  1  0
 19 40  1  0
M  END

