99443985
     RDKit          3D

 53 57  0  0  0  0  0  0  0  0999 V2000
   -6.6733    0.8633   -2.2438 N   0  0  0  0  0  0  0  0  0  0  0  0
   -5.4643    0.2538   -2.0931 C   0  0  0  0  0  0  0  0  0  0  0  0
   -4.8350    0.1767   -0.8756 C   0  0  0  0  0  0  0  0  0  0  0  0
   -5.4614    0.7375    0.2079 C   0  0  0  0  0  0  0  0  0  0  0  0
   -6.6592    1.3382    0.0423 N   0  0  0  0  0  0  0  0  0  0  0  0
   -7.2583    1.4021   -1.1623 C   0  0  0  0  0  0  0  0  0  0  0  0
   -3.6116   -0.4541   -0.7869 C   0  0  0  0  0  0  0  0  0  0  0  0
   -2.9926   -0.5271    0.4322 C   0  0  0  0  0  0  0  0  0  0  0  0
   -3.6061    0.0353    1.5570 C   0  0  0  0  0  0  0  0  0  0  0  0
   -4.8299    0.6611    1.4406 C   0  0  0  0  0  0  0  0  0  0  0  0
   -8.5117    2.0414   -1.2800 N   0  0  0  0  0  0  0  0  0  0  0  0
   -1.7058   -1.1843    0.6104 C   0  0  0  0  0  0  0  0  0  0  0  0
   -0.5033   -0.5839    0.3150 C   0  0  0  0  0  0  0  0  0  0  0  0
    0.6391   -1.2641    0.5186 N   0  0  0  0  0  0  0  0  0  0  0  0
    0.6192   -2.5146    1.0041 C   0  0  0  0  0  0  0  0  0  0  0  0
   -0.5591   -3.1378    1.3070 C   0  0  0  0  0  0  0  0  0  0  0  0
   -1.7468   -2.4846    1.1161 C   0  0  0  0  0  0  0  0  0  0  0  0
   -3.0621   -3.1138    1.4242 C   0  0  0  0  0  0  0  0  0  0  0  0
   -0.4822    0.5882   -0.1397 O   0  0  0  0  0  0  0  0  0  0  0  0
    1.8849   -0.6152    0.2030 C   0  0  0  0  0  0  0  0  0  0  0  0
    2.1687   -0.2611   -1.0971 C   0  0  0  0  0  0  0  0  0  0  0  0
    3.3891    0.3614   -1.3676 C   0  0  0  0  0  0  0  0  0  0  0  0
    4.3126    0.6315   -0.3815 C   0  0  0  0  0  0  0  0  0  0  0  0
    4.0193    0.2737    0.9184 C   0  0  0  0  0  0  0  0  0  0  0  0
    2.7956   -0.3508    1.1881 C   0  0  0  0  0  0  0  0  0  0  0  0
    5.6660    1.2721   -0.4145 C   0  0  0  0  0  0  0  0  0  0  0  0
    6.2761    0.7815    0.8723 C   0  0  0  0  0  0  0  0  0  0  0  0
    5.1166    0.6558    1.7346 N   0  0  0  0  0  0  0  0  0  0  0  0
    5.5754    2.7678   -0.3372 C   0  0  0  0  0  0  0  0  0  0  0  0
    6.4221    0.8042   -1.6278 C   0  0  0  0  0  0  0  0  0  0  0  0
   -4.9996   -0.1787   -2.9792 H   0  0  0  0  0  0  0  0  0  0  0  0
   -3.1862   -0.8660   -1.6798 H   0  0  0  0  0  0  0  0  0  0  0  0
   -3.1237   -0.0161    2.5342 H   0  0  0  0  0  0  0  0  0  0  0  0
   -5.3336    1.1080    2.2915 H   0  0  0  0  0  0  0  0  0  0  0  0
   -8.9576    2.2650   -2.1775 H   0  0  0  0  0  0  0  0  0  0  0  0
   -9.0495    2.3215   -0.4098 H   0  0  0  0  0  0  0  0  0  0  0  0
    1.5851   -3.0239    1.1527 H   0  0  0  0  0  0  0  0  0  0  0  0
   -0.5657   -4.1705    1.7076 H   0  0  0  0  0  0  0  0  0  0  0  0
   -3.0273   -4.1884    1.1965 H   0  0  0  0  0  0  0  0  0  0  0  0
   -3.3043   -2.9003    2.4660 H   0  0  0  0  0  0  0  0  0  0  0  0
   -3.8270   -2.6649    0.7349 H   0  0  0  0  0  0  0  0  0  0  0  0
    1.4868   -0.4459   -1.9085 H   0  0  0  0  0  0  0  0  0  0  0  0
    3.6083    0.6341   -2.3808 H   0  0  0  0  0  0  0  0  0  0  0  0
    2.5858   -0.6212    2.1999 H   0  0  0  0  0  0  0  0  0  0  0  0
    7.0282    1.4898    1.2792 H   0  0  0  0  0  0  0  0  0  0  0  0
    6.6857   -0.2480    0.7405 H   0  0  0  0  0  0  0  0  0  0  0  0
    5.0367    0.8042    2.7645 H   0  0  0  0  0  0  0  0  0  0  0  0
    6.4416    3.1151    0.2589 H   0  0  0  0  0  0  0  0  0  0  0  0
    5.6620    3.2458   -1.3460 H   0  0  0  0  0  0  0  0  0  0  0  0
    4.6529    3.1025    0.2078 H   0  0  0  0  0  0  0  0  0  0  0  0
    7.4874    0.6578   -1.4426 H   0  0  0  0  0  0  0  0  0  0  0  0
    5.9150   -0.1324   -2.0037 H   0  0  0  0  0  0  0  0  0  0  0  0
    6.2774    1.5581   -2.4203 H   0  0  0  0  0  0  0  0  0  0  0  0
  1  2  2  0
  2  3  1  0
  3  7  2  0
  3  4  1  0
  4  5  1  0
  5  6  2  0
  1  6  1  0
  7  8  1  0
  8 12  1  0
  8  9  2  0
  4 10  2  0
  9 10  1  0
  6 11  1  0
 12 17  2  0
 12 13  1  0
 13 14  1  0
 14 20  1  0
 14 15  1  0
 15 16  2  0
 16 17  1  0
 17 18  1  0
 13 19  2  0
 20 25  1  0
 20 21  2  0
 21 22  1  0
 22 23  2  0
 23 26  1  0
 23 24  1  0
 24 28  1  0
 24 25  2  0
 26 30  1  0
 26 27  1  0
 27 28  1  0
 26 29  1  0
  2 31  1  0
  7 32  1  0
  9 33  1  0
 10 34  1  0
 11 35  1  0
 11 36  1  0
 15 37  1  0
 16 38  1  0
 18 39  1  0
 18 40  1  0
 18 41  1  0
 21 42  1  0
 22 43  1  0
 25 44  1  0
 27 45  1  0
 27 46  1  0
 28 47  1  0
 29 48  1  0
 29 49  1  0
 29 50  1  0
 30 51  1  0
 30 52  1  0
 30 53  1  0
M  END

