99444381
     RDKit          3D

 25 25  0  0  1  0  0  0  0  0999 V2000
    2.8737    0.1057    0.1817 C   0  0  0  0  0  0  0  0  0  0  0  0
    3.3621   -0.1565   -1.0689 O   0  0  0  0  0  0  0  0  0  0  0  0
    3.1665   -0.9850    1.0023 O   0  0  0  0  0  0  0  0  0  0  0  0
    1.3900    0.3463    0.2317 C   0  0  1  0  0  0  0  0  0  0  0  0
    0.9770    1.4647   -0.5703 N   0  0  0  0  0  0  0  0  0  0  0  0
    0.5829   -0.8752   -0.0917 C   0  0  0  0  0  0  0  0  0  0  0  0
   -0.8567   -0.5064   -0.0081 C   0  0  0  0  0  0  0  0  0  0  0  0
   -1.5787   -0.6159    1.1596 C   0  0  0  0  0  0  0  0  0  0  0  0
   -1.5270   -0.0334   -1.1209 C   0  0  0  0  0  0  0  0  0  0  0  0
   -2.9099   -0.2653    1.2004 C   0  0  0  0  0  0  0  0  0  0  0  0
   -2.8495    0.3252   -1.1197 C   0  0  0  0  0  0  0  0  0  0  0  0
   -3.5529    0.2048    0.0702 C   0  0  0  0  0  0  0  0  0  0  0  0
    3.3725    1.0184    0.5808 H   0  0  0  0  0  0  0  0  0  0  0  0
    2.7336   -0.5310   -1.7062 H   0  0  0  0  0  0  0  0  0  0  0  0
    3.1011   -0.7662    1.9652 H   0  0  0  0  0  0  0  0  0  0  0  0
    1.1530    0.6142    1.3011 H   0  0  0  0  0  0  0  0  0  0  0  0
    1.0384    1.3104   -1.5800 H   0  0  0  0  0  0  0  0  0  0  0  0
    1.3839    2.3561   -0.2314 H   0  0  0  0  0  0  0  0  0  0  0  0
    0.7780   -1.2451   -1.1117 H   0  0  0  0  0  0  0  0  0  0  0  0
    0.7970   -1.6442    0.6772 H   0  0  0  0  0  0  0  0  0  0  0  0
   -1.0620   -0.9900    2.0533 H   0  0  0  0  0  0  0  0  0  0  0  0
   -0.9604    0.0535   -2.0409 H   0  0  0  0  0  0  0  0  0  0  0  0
   -3.4299   -0.3667    2.1272 H   0  0  0  0  0  0  0  0  0  0  0  0
   -3.3758    0.6962   -1.9920 H   0  0  0  0  0  0  0  0  0  0  0  0
   -4.6069    0.4854    0.0910 H   0  0  0  0  0  0  0  0  0  0  0  0
  1  2  1  0
  1  3  1  0
  1  4  1  0
  4  5  1  0
  4  6  1  0
  6  7  1  0
  7  8  2  0
  7  9  1  0
  8 10  1  0
  9 11  2  0
 10 12  2  0
 11 12  1  0
  1 13  1  0
  2 14  1  0
  3 15  1  0
  4 16  1  1
  5 17  1  0
  5 18  1  0
  6 19  1  0
  6 20  1  0
  8 21  1  0
  9 22  1  0
 10 23  1  0
 11 24  1  0
 12 25  1  0
M  END

