99444717
     RDKit          3D

 42 44  0  0  1  0  0  0  0  0999 V2000
    4.5380   -2.1229   -0.6076 C   0  0  0  0  0  0  0  0  0  0  0  0
    3.2971   -1.6953   -0.2066 C   0  0  0  0  0  0  0  0  0  0  0  0
    2.9454   -0.3503   -0.0635 C   0  0  0  0  0  0  0  0  0  0  0  0
    3.9197    0.5707   -0.3479 C   0  0  0  0  0  0  0  0  0  0  0  0
    5.1976    0.1736   -0.7598 C   0  0  0  0  0  0  0  0  0  0  0  0
    5.5003   -1.1638   -0.8873 C   0  0  0  0  0  0  0  0  0  0  0  0
    1.5801    0.0090    0.3749 C   0  0  0  0  0  0  0  0  0  0  0  0
    0.5483   -1.0534    0.6661 C   0  0  0  0  0  0  0  0  0  0  0  0
   -0.6876   -0.3105    0.6887 N   0  0  0  0  0  0  0  0  0  0  0  0
   -0.3271    1.0493    1.0015 C   0  0  1  0  0  0  0  0  0  0  0  0
    1.0591    1.1900    0.5678 C   0  0  0  0  0  0  0  0  0  0  0  0
   -1.2374    2.0335    0.3654 C   0  0  0  0  0  0  0  0  0  0  0  0
   -1.6222    1.9921   -0.9375 C   0  0  0  0  0  0  0  0  0  0  0  0
   -2.4695    2.9191   -1.5080 C   0  0  0  0  0  0  0  0  0  0  0  0
   -2.9440    3.9433   -0.6877 C   0  0  0  0  0  0  0  0  0  0  0  0
   -2.5707    4.0078    0.6311 C   0  0  0  0  0  0  0  0  0  0  0  0
   -1.7249    3.0588    1.1475 C   0  0  0  0  0  0  0  0  0  0  0  0
   -2.0167   -0.7542    0.4777 C   0  0  0  0  0  0  0  0  0  0  0  0
   -2.3984   -2.0779    0.2025 N   0  0  0  0  0  0  0  0  0  0  0  0
   -3.8285   -2.3823   -0.0091 C   0  0  0  0  0  0  0  0  0  0  0  0
   -1.5115   -3.2189    0.1086 C   0  0  0  0  0  0  0  0  0  0  0  0
   -2.9396    0.1109    0.5420 O   0  0  0  0  0  0  0  0  0  0  0  0
    3.6770    1.8810   -0.2399 F   0  0  0  0  0  0  0  0  0  0  0  0
    4.7658   -3.4519   -0.7114 F   0  0  0  0  0  0  0  0  0  0  0  0
    2.5532   -2.4752    0.0087 H   0  0  0  0  0  0  0  0  0  0  0  0
    5.9733    0.8896   -0.9867 H   0  0  0  0  0  0  0  0  0  0  0  0
    6.4645   -1.5281   -1.1996 H   0  0  0  0  0  0  0  0  0  0  0  0
    0.7565   -1.5437    1.6294 H   0  0  0  0  0  0  0  0  0  0  0  0
    0.6353   -1.7507   -0.1925 H   0  0  0  0  0  0  0  0  0  0  0  0
   -0.3276    1.2023    2.1222 H   0  0  0  0  0  0  0  0  0  0  0  0
    1.6125    2.1401    0.4162 H   0  0  0  0  0  0  0  0  0  0  0  0
   -1.2279    1.1706   -1.5523 H   0  0  0  0  0  0  0  0  0  0  0  0
   -2.7716    2.8809   -2.5438 H   0  0  0  0  0  0  0  0  0  0  0  0
   -3.6097    4.6747   -1.1291 H   0  0  0  0  0  0  0  0  0  0  0  0
   -2.9326    4.7934    1.2668 H   0  0  0  0  0  0  0  0  0  0  0  0
   -1.4319    3.1166    2.1986 H   0  0  0  0  0  0  0  0  0  0  0  0
   -4.3015   -2.5695    0.9627 H   0  0  0  0  0  0  0  0  0  0  0  0
   -4.3167   -1.4549   -0.4262 H   0  0  0  0  0  0  0  0  0  0  0  0
   -3.9206   -3.1896   -0.7389 H   0  0  0  0  0  0  0  0  0  0  0  0
   -0.7751   -3.2525    0.9618 H   0  0  0  0  0  0  0  0  0  0  0  0
   -2.0939   -4.1814    0.2646 H   0  0  0  0  0  0  0  0  0  0  0  0
   -1.0367   -3.2806   -0.8692 H   0  0  0  0  0  0  0  0  0  0  0  0
  1  2  2  0
  1  6  1  0
  1 24  1  0
  2  3  1  0
  3  4  2  0
  3  7  1  0
  4  5  1  0
  4 23  1  0
  5  6  2  0
  7  8  1  0
  7 11  2  0
  8  9  1  0
  9 10  1  0
  9 18  1  0
 10 11  1  0
 10 12  1  0
 12 13  2  0
 12 17  1  0
 13 14  1  0
 14 15  2  0
 15 16  1  0
 16 17  2  0
 18 19  1  0
 18 22  2  0
 19 20  1  0
 19 21  1  0
  2 25  1  0
  5 26  1  0
  6 27  1  0
  8 28  1  0
  8 29  1  0
 10 30  1  1
 11 31  1  0
 13 32  1  0
 14 33  1  0
 15 34  1  0
 16 35  1  0
 17 36  1  0
 20 37  1  0
 20 38  1  0
 20 39  1  0
 21 40  1  0
 21 41  1  0
 21 42  1  0
M  END

