99444298
     RDKit          3D

 52 55  0  0  0  0  0  0  0  0999 V2000
   -1.2226    1.9350    1.9303 N   0  0  0  0  0  0  0  0  0  0  0  0
   -3.5924   -0.8197    2.1178 C   0  0  0  0  0  0  0  0  0  0  0  0
   -1.3776   -0.6757    1.1333 C   0  0  0  0  0  0  0  0  0  0  0  0
    1.9635    1.5611    0.3212 C   0  0  0  0  0  0  0  0  0  0  0  0
    3.0496   -0.3433   -0.8186 C   0  0  0  0  0  0  0  0  0  0  0  0
    1.9390    0.2463   -0.1049 C   0  0  0  0  0  0  0  0  0  0  0  0
   -6.6458   -0.6293   -0.8828 C   0  0  0  0  0  0  0  0  0  0  0  0
   -5.6504   -1.5919   -0.9369 C   0  0  0  0  0  0  0  0  0  0  0  0
   -4.6625   -1.6453    0.0408 C   0  0  0  0  0  0  0  0  0  0  0  0
   -5.6318    0.1964    1.1279 C   0  0  0  0  0  0  0  0  0  0  0  0
    6.3790   -0.8499   -1.8397 C   0  0  0  0  0  0  0  0  0  0  0  0
   -4.6395   -0.7554    1.0823 C   0  0  0  0  0  0  0  0  0  0  0  0
   -0.2321    0.0559    0.8432 C   0  0  0  0  0  0  0  0  0  0  0  0
   -7.6597   -0.5982   -1.9137 C   0  0  0  0  0  0  0  0  0  0  0  0
    3.9682   -0.8529   -1.4228 C   0  0  0  0  0  0  0  0  0  0  0  0
   -7.6519   -1.4291   -2.8559 O   0  0  0  0  0  0  0  0  0  0  0  0
   -8.6729    0.3473   -1.8977 O   0  0  0  0  0  0  0  0  0  0  0  0
   -6.6347    0.2641    0.1507 C   0  0  0  0  0  0  0  0  0  0  0  0
   -2.3991   -0.0705    1.8103 N   0  0  0  0  0  0  0  0  0  0  0  0
   -1.4409   -1.8711    0.7662 O   0  0  0  0  0  0  0  0  0  0  0  0
   -0.2052    1.3665    1.2669 C   0  0  0  0  0  0  0  0  0  0  0  0
    0.9110    2.1387    1.0039 C   0  0  0  0  0  0  0  0  0  0  0  0
   -1.1455    3.3340    2.3601 C   0  0  0  0  0  0  0  0  0  0  0  0
   -2.3139    1.2021    2.1946 C   0  0  0  0  0  0  0  0  0  0  0  0
   -3.2587    1.7303    2.8123 O   0  0  0  0  0  0  0  0  0  0  0  0
    0.8299   -0.5282    0.1540 C   0  0  0  0  0  0  0  0  0  0  0  0
    5.0771   -1.4966   -2.1540 C   0  0  0  0  0  0  0  0  0  0  0  0
    6.8776    0.2062   -2.5618 C   0  0  0  0  0  0  0  0  0  0  0  0
    8.0877    0.7837   -2.2441 C   0  0  0  0  0  0  0  0  0  0  0  0
    7.0999   -1.3398   -0.7811 C   0  0  0  0  0  0  0  0  0  0  0  0
    8.3047   -0.7657   -0.4640 C   0  0  0  0  0  0  0  0  0  0  0  0
    8.8091    0.2953   -1.1868 C   0  0  0  0  0  0  0  0  0  0  0  0
   -3.3751   -1.8952    2.2946 H   0  0  0  0  0  0  0  0  0  0  0  0
   -3.9601   -0.4357    3.1026 H   0  0  0  0  0  0  0  0  0  0  0  0
    2.8586    2.1434    0.0980 H   0  0  0  0  0  0  0  0  0  0  0  0
   -5.6627   -2.2933   -1.7519 H   0  0  0  0  0  0  0  0  0  0  0  0
   -3.9404   -2.4352   -0.0945 H   0  0  0  0  0  0  0  0  0  0  0  0
   -5.6745    0.9305    1.9346 H   0  0  0  0  0  0  0  0  0  0  0  0
   -9.5703    0.1742   -1.4380 H   0  0  0  0  0  0  0  0  0  0  0  0
   -7.3933    1.0442    0.2454 H   0  0  0  0  0  0  0  0  0  0  0  0
    0.9257    3.1584    1.3364 H   0  0  0  0  0  0  0  0  0  0  0  0
   -2.0575    3.5880    2.9074 H   0  0  0  0  0  0  0  0  0  0  0  0
   -1.0751    4.0067    1.4864 H   0  0  0  0  0  0  0  0  0  0  0  0
   -0.2570    3.5005    3.0036 H   0  0  0  0  0  0  0  0  0  0  0  0
    0.7694   -1.5552   -0.1596 H   0  0  0  0  0  0  0  0  0  0  0  0
    4.8673   -1.4778   -3.2474 H   0  0  0  0  0  0  0  0  0  0  0  0
    5.1141   -2.5440   -1.8147 H   0  0  0  0  0  0  0  0  0  0  0  0
    6.2908    0.5950   -3.4130 H   0  0  0  0  0  0  0  0  0  0  0  0
    8.4805    1.6230   -2.8205 H   0  0  0  0  0  0  0  0  0  0  0  0
    6.7302   -2.1774   -0.1889 H   0  0  0  0  0  0  0  0  0  0  0  0
    8.9132   -1.1288    0.3770 H   0  0  0  0  0  0  0  0  0  0  0  0
    9.7571    0.7190   -0.9080 H   0  0  0  0  0  0  0  0  0  0  0  0
  1 23  1  0
  1 21  1  0
  1 24  1  0
  2 19  1  0
  2 12  1  0
  3 13  1  0
  3 19  1  0
  3 20  2  0
  4 22  2  0
  4  6  1  0
  5 15  3  0
  5  6  1  0
  6 26  2  0
  7  8  2  0
  7 18  1  0
  7 14  1  0
  8  9  1  0
  9 12  2  0
 10 12  1  0
 10 18  2  0
 11 28  2  0
 11 27  1  0
 11 30  1  0
 13 21  2  0
 13 26  1  0
 14 16  2  0
 14 17  1  0
 15 27  1  0
 19 24  1  0
 21 22  1  0
 24 25  2  0
 28 29  1  0
 29 32  2  0
 30 31  2  0
 31 32  1  0
  2 33  1  0
  2 34  1  0
  4 35  1  0
  8 36  1  0
  9 37  1  0
 10 38  1  0
 17 39  1  0
 18 40  1  0
 22 41  1  0
 23 42  1  0
 23 43  1  0
 23 44  1  0
 26 45  1  0
 27 46  1  0
 27 47  1  0
 28 48  1  0
 29 49  1  0
 30 50  1  0
 31 51  1  0
 32 52  1  0
M  END

