99444178
     RDKit          3D

 51 54  0  0  1  0  0  0  0  0999 V2000
    0.7632   -0.0335    0.6024 C   0  0  2  0  0  0  0  0  0  0  0  0
    1.9258   -0.3290   -0.2284 C   0  0  0  0  0  0  0  0  0  0  0  0
    2.4435    0.3574   -1.2697 C   0  0  0  0  0  0  0  0  0  0  0  0
    3.5590   -0.1079   -1.9321 C   0  0  0  0  0  0  0  0  0  0  0  0
    4.1862   -1.2785   -1.5670 C   0  0  0  0  0  0  0  0  0  0  0  0
    5.3187   -1.7341   -2.2525 O   0  0  0  0  0  0  0  0  0  0  0  0
    3.6532   -1.9760   -0.5049 C   0  0  0  0  0  0  0  0  0  0  0  0
    2.5465   -1.5262    0.1621 C   0  0  0  0  0  0  0  0  0  0  0  0
    1.9605   -2.3138    1.2997 C   0  0  0  0  0  0  0  0  0  0  0  0
    0.4453   -2.3947    1.1993 C   0  0  0  0  0  0  0  0  0  0  0  0
   -0.1397   -1.2659    0.3938 C   0  0  1  0  0  0  0  0  0  0  0  0
   -1.4960   -0.8412    0.6907 C   0  0  2  0  0  0  0  0  0  0  0  0
   -2.5800   -1.8840    0.5351 C   0  0  0  0  0  0  0  0  0  0  0  0
   -3.8249   -1.0045    0.5143 C   0  0  0  0  0  0  0  0  0  0  0  0
   -3.3505    0.4167    0.1811 C   0  0  2  0  0  0  0  0  0  0  0  0
   -4.1718    0.9946   -0.7888 O   0  0  0  0  0  0  0  0  0  0  0  0
   -1.9751    0.1054   -0.4047 C   0  0  2  0  0  0  0  0  0  0  0  0
   -2.2192   -0.5932   -1.7060 C   0  0  0  0  0  0  0  0  0  0  0  0
   -1.0653    1.2794   -0.5014 C   0  0  0  0  0  0  0  0  0  0  0  0
    0.0443    1.2212    0.5536 C   0  0  2  0  0  0  0  0  0  0  0  0
    0.7547    2.5059    0.7058 C   0  0  0  0  0  0  0  0  0  0  0  0
   -0.1786    3.5734    0.6120 O   0  0  0  0  0  0  0  0  0  0  0  0
    0.4686    4.7968    0.7526 C   0  0  0  0  0  0  0  0  0  0  0  0
    1.1219   -0.1734    1.6841 H   0  0  0  0  0  0  0  0  0  0  0  0
    1.9623    1.2741   -1.6020 H   0  0  0  0  0  0  0  0  0  0  0  0
    3.9591    0.4781   -2.7808 H   0  0  0  0  0  0  0  0  0  0  0  0
    6.2122   -1.3948   -1.8719 H   0  0  0  0  0  0  0  0  0  0  0  0
    4.1681   -2.8993   -0.2365 H   0  0  0  0  0  0  0  0  0  0  0  0
    2.3471   -3.3468    1.1938 H   0  0  0  0  0  0  0  0  0  0  0  0
    2.3101   -1.9350    2.2799 H   0  0  0  0  0  0  0  0  0  0  0  0
    0.0643   -2.4229    2.2433 H   0  0  0  0  0  0  0  0  0  0  0  0
    0.1194   -3.3441    0.7209 H   0  0  0  0  0  0  0  0  0  0  0  0
    0.0339   -1.5665   -0.6789 H   0  0  0  0  0  0  0  0  0  0  0  0
   -1.6179   -0.4253    1.6820 H   0  0  0  0  0  0  0  0  0  0  0  0
   -2.5202   -2.4098   -0.4255 H   0  0  0  0  0  0  0  0  0  0  0  0
   -2.6685   -2.5514    1.4089 H   0  0  0  0  0  0  0  0  0  0  0  0
   -4.5885   -1.3599   -0.1786 H   0  0  0  0  0  0  0  0  0  0  0  0
   -4.2748   -0.9330    1.5362 H   0  0  0  0  0  0  0  0  0  0  0  0
   -3.2360    1.0326    1.0806 H   0  0  0  0  0  0  0  0  0  0  0  0
   -5.1309    0.7168   -0.6693 H   0  0  0  0  0  0  0  0  0  0  0  0
   -2.1325    0.1605   -2.5164 H   0  0  0  0  0  0  0  0  0  0  0  0
   -1.5613   -1.4279   -1.9334 H   0  0  0  0  0  0  0  0  0  0  0  0
   -3.2716   -0.9893   -1.7867 H   0  0  0  0  0  0  0  0  0  0  0  0
   -0.6792    1.3800   -1.5114 H   0  0  0  0  0  0  0  0  0  0  0  0
   -1.6548    2.1927   -0.2681 H   0  0  0  0  0  0  0  0  0  0  0  0
   -0.6309    1.2136    1.5094 H   0  0  0  0  0  0  0  0  0  0  0  0
    1.1489    2.6500    1.7716 H   0  0  0  0  0  0  0  0  0  0  0  0
    1.6405    2.7006    0.0986 H   0  0  0  0  0  0  0  0  0  0  0  0
    0.9876    4.9230    1.7011 H   0  0  0  0  0  0  0  0  0  0  0  0
   -0.3084    5.5771    0.6472 H   0  0  0  0  0  0  0  0  0  0  0  0
    1.1320    4.9123   -0.1448 H   0  0  0  0  0  0  0  0  0  0  0  0
  1 20  1  0
  1 11  1  0
  1  2  1  0
  2  3  2  0
  2  8  1  0
  3  4  1  0
  4  5  2  0
  5  7  1  0
  5  6  1  0
  7  8  2  0
  8  9  1  0
  9 10  1  0
 10 11  1  0
 11 12  1  0
 12 17  1  0
 12 13  1  0
 13 14  1  0
 14 15  1  0
 15 16  1  0
 15 17  1  0
 17 19  1  0
 17 18  1  6
 19 20  1  0
 20 21  1  0
 21 22  1  0
 22 23  1  0
  1 24  1  1
  3 25  1  0
  4 26  1  0
  6 27  1  0
  7 28  1  0
  9 29  1  0
  9 30  1  0
 10 31  1  0
 10 32  1  0
 11 33  1  6
 12 34  1  1
 13 35  1  0
 13 36  1  0
 14 37  1  0
 14 38  1  0
 15 39  1  1
 16 40  1  0
 18 41  1  0
 18 42  1  0
 18 43  1  0
 19 44  1  0
 19 45  1  0
 20 46  1  1
 21 47  1  0
 21 48  1  0
 23 49  1  0
 23 50  1  0
 23 51  1  0
M  END

