99444967
     RDKit          3D

 39 41  0  0  1  0  0  0  0  0999 V2000
    3.2103    0.2430   -1.5701 C   0  0  0  0  0  0  0  0  0  0  0  0
    4.5933    0.1536   -1.4603 C   0  0  0  0  0  0  0  0  0  0  0  0
    5.1371   -0.2812   -0.2929 C   0  0  0  0  0  0  0  0  0  0  0  0
    4.3551   -0.6349    0.7830 C   0  0  0  0  0  0  0  0  0  0  0  0
    2.3883   -0.1001   -0.5202 C   0  0  0  0  0  0  0  0  0  0  0  0
    2.9824   -0.5322    0.6347 C   0  0  0  0  0  0  0  0  0  0  0  0
    0.2429   -0.3763    0.4779 C   0  0  0  0  0  0  0  0  0  0  0  0
   -1.8522   -1.1447   -0.6482 C   0  0  0  0  0  0  0  0  0  0  0  0
   -2.3933   -3.5747    0.0902 C   0  0  0  0  0  0  0  0  0  0  0  0
   -1.2197   -0.3154    0.4594 C   0  0  2  0  0  0  0  0  0  0  0  0
   -1.7719    1.0416    0.4393 C   0  0  0  0  0  0  0  0  0  0  0  0
   -2.8142    3.6473    0.5733 C   0  0  0  0  0  0  0  0  0  0  0  0
   -2.3493    3.0026    1.7052 C   0  0  0  0  0  0  0  0  0  0  0  0
   -1.8347    1.7237    1.6563 C   0  0  0  0  0  0  0  0  0  0  0  0
   -2.2396    1.7014   -0.6725 C   0  0  0  0  0  0  0  0  0  0  0  0
   -2.7582    2.9857   -0.6347 C   0  0  0  0  0  0  0  0  0  0  0  0
    1.0185   -0.0152   -0.6184 C   0  0  0  0  0  0  0  0  0  0  0  0
    0.3876    0.4082   -1.7455 O   0  0  0  0  0  0  0  0  0  0  0  0
    2.2378   -0.8674    1.6549 O   0  0  0  0  0  0  0  0  0  0  0  0
    0.9313   -0.8018    1.6044 C   0  0  0  0  0  0  0  0  0  0  0  0
    0.2898   -1.1451    2.6367 O   0  0  0  0  0  0  0  0  0  0  0  0
   -1.4792   -2.5741   -0.4927 C   0  0  0  0  0  0  0  0  0  0  0  0
   -0.3765   -2.9389   -0.8591 O   0  0  0  0  0  0  0  0  0  0  0  0
    2.7843    0.5857   -2.4909 H   0  0  0  0  0  0  0  0  0  0  0  0
    5.2233    0.4310   -2.3058 H   0  0  0  0  0  0  0  0  0  0  0  0
    6.2147   -0.3439   -0.2260 H   0  0  0  0  0  0  0  0  0  0  0  0
    4.7818   -0.9795    1.7083 H   0  0  0  0  0  0  0  0  0  0  0  0
   -2.9584   -1.0146   -0.5137 H   0  0  0  0  0  0  0  0  0  0  0  0
   -1.6256   -0.7595   -1.6474 H   0  0  0  0  0  0  0  0  0  0  0  0
   -2.9866   -3.1013    0.9019 H   0  0  0  0  0  0  0  0  0  0  0  0
   -1.8079   -4.4242    0.4976 H   0  0  0  0  0  0  0  0  0  0  0  0
   -3.1231   -3.9876   -0.6547 H   0  0  0  0  0  0  0  0  0  0  0  0
   -1.5979   -0.7976    1.4092 H   0  0  0  0  0  0  0  0  0  0  0  0
   -3.2135    4.6451    0.6216 H   0  0  0  0  0  0  0  0  0  0  0  0
   -2.3823    3.5012    2.6690 H   0  0  0  0  0  0  0  0  0  0  0  0
   -1.4821    1.2605    2.5727 H   0  0  0  0  0  0  0  0  0  0  0  0
   -2.2123    1.2151   -1.6143 H   0  0  0  0  0  0  0  0  0  0  0  0
   -3.1190    3.4733   -1.5416 H   0  0  0  0  0  0  0  0  0  0  0  0
    0.8189    0.6912   -2.5864 H   0  0  0  0  0  0  0  0  0  0  0  0
  1  2  2  0
  1  5  1  0
  2  3  1  0
  3  4  2  0
  4  6  1  0
  5 17  1  0
  5  6  2  0
  6 19  1  0
  7 17  2  0
 19 20  1  0
  7 20  1  0
  7 10  1  0
  8 10  1  0
  8 22  1  0
  9 22  1  0
 10 11  1  0
 11 14  2  0
 11 15  1  0
 12 13  2  0
 12 16  1  0
 13 14  1  0
 15 16  2  0
 17 18  1  0
 20 21  2  0
 22 23  2  0
  1 24  1  0
  2 25  1  0
  3 26  1  0
  4 27  1  0
  8 28  1  0
  8 29  1  0
  9 30  1  0
  9 31  1  0
  9 32  1  0
 10 33  1  1
 12 34  1  0
 13 35  1  0
 14 36  1  0
 15 37  1  0
 16 38  1  0
 18 39  1  0
M  END

