99443507
     RDKit          3D

 46 49  0  0  1  0  0  0  0  0999 V2000
    3.3593   -1.9546    0.9483 C   0  0  0  0  0  0  0  0  0  0  0  0
    3.5908   -0.7480    0.2792 C   0  0  0  0  0  0  0  0  0  0  0  0
    2.5435    0.0819   -0.0509 C   0  0  0  0  0  0  0  0  0  0  0  0
    1.2495   -0.2610    0.2716 C   0  0  0  0  0  0  0  0  0  0  0  0
    0.1749    0.5349   -0.0374 O   0  0  0  0  0  0  0  0  0  0  0  0
   -1.0376    0.3541    0.7071 C   0  0  1  0  0  0  0  0  0  0  0  0
   -2.0992    1.2638    0.2525 C   0  0  0  0  0  0  0  0  0  0  0  0
   -2.8764    1.9550    1.1643 C   0  0  0  0  0  0  0  0  0  0  0  0
   -3.8830    2.8187    0.7851 C   0  0  0  0  0  0  0  0  0  0  0  0
   -4.1261    3.0017   -0.5682 C   0  0  0  0  0  0  0  0  0  0  0  0
   -5.1385    3.8705   -0.9404 O   0  0  0  0  0  0  0  0  0  0  0  0
   -3.3489    2.3105   -1.4830 C   0  0  0  0  0  0  0  0  0  0  0  0
   -2.3428    1.4475   -1.0935 C   0  0  0  0  0  0  0  0  0  0  0  0
   -1.4534   -1.0888    0.7363 C   0  0  2  0  0  0  0  0  0  0  0  0
   -0.3528   -1.9072    1.3232 C   0  0  2  0  0  0  0  0  0  0  0  0
    0.9948   -1.4642    0.9414 C   0  0  0  0  0  0  0  0  0  0  0  0
    2.0595   -2.2804    1.2623 C   0  0  0  0  0  0  0  0  0  0  0  0
   -0.5608   -3.3219    0.7858 C   0  0  0  0  0  0  0  0  0  0  0  0
   -1.5094   -3.1861   -0.3781 C   0  0  0  0  0  0  0  0  0  0  0  0
   -2.7498   -3.7567   -0.1048 F   0  0  0  0  0  0  0  0  0  0  0  0
   -1.0226   -3.7919   -1.5257 F   0  0  0  0  0  0  0  0  0  0  0  0
   -1.6639   -1.6879   -0.6151 C   0  0  0  0  0  0  0  0  0  0  0  0
    2.8478    1.3445   -0.7577 C   0  0  0  0  0  0  0  0  0  0  0  0
    4.2155    1.4873   -0.9814 O   0  0  0  0  0  0  0  0  0  0  0  0
    4.4929    2.6855   -1.6510 C   0  0  0  0  0  0  0  0  0  0  0  0
    4.4496   -2.7537    1.2574 O   0  0  0  0  0  0  0  0  0  0  0  0
    4.6119   -0.4837    0.0281 H   0  0  0  0  0  0  0  0  0  0  0  0
   -0.7740    0.6373    1.7539 H   0  0  0  0  0  0  0  0  0  0  0  0
   -2.7170    1.8389    2.2462 H   0  0  0  0  0  0  0  0  0  0  0  0
   -4.4909    3.3591    1.4942 H   0  0  0  0  0  0  0  0  0  0  0  0
   -5.4003    4.0783   -1.8744 H   0  0  0  0  0  0  0  0  0  0  0  0
   -3.5571    2.4692   -2.5507 H   0  0  0  0  0  0  0  0  0  0  0  0
   -1.7653    0.9319   -1.8723 H   0  0  0  0  0  0  0  0  0  0  0  0
   -2.3470   -1.1753    1.3543 H   0  0  0  0  0  0  0  0  0  0  0  0
   -0.4348   -1.9134    2.4219 H   0  0  0  0  0  0  0  0  0  0  0  0
    1.9020   -3.2342    1.7885 H   0  0  0  0  0  0  0  0  0  0  0  0
   -1.0020   -3.9436    1.5868 H   0  0  0  0  0  0  0  0  0  0  0  0
    0.3964   -3.7335    0.4067 H   0  0  0  0  0  0  0  0  0  0  0  0
   -0.9070   -1.3964   -1.3393 H   0  0  0  0  0  0  0  0  0  0  0  0
   -2.7038   -1.5276   -0.9454 H   0  0  0  0  0  0  0  0  0  0  0  0
    2.5152    2.2332   -0.1747 H   0  0  0  0  0  0  0  0  0  0  0  0
    2.3130    1.3545   -1.7510 H   0  0  0  0  0  0  0  0  0  0  0  0
    4.1652    3.5752   -1.0881 H   0  0  0  0  0  0  0  0  0  0  0  0
    4.0008    2.6603   -2.6628 H   0  0  0  0  0  0  0  0  0  0  0  0
    5.5749    2.7857   -1.8579 H   0  0  0  0  0  0  0  0  0  0  0  0
    4.8073   -3.4695    0.6413 H   0  0  0  0  0  0  0  0  0  0  0  0
  1  2  2  0
  2  3  1  0
  3 23  1  0
  3  4  2  0
  4  5  1  0
  5  6  1  0
  6  7  1  0
  7  8  2  0
  8  9  1  0
  9 10  2  0
 10 11  1  0
 10 12  1  0
  7 13  1  0
 12 13  2  0
 14 22  1  0
  6 14  1  0
 15 16  1  0
 14 15  1  0
  4 16  1  0
  1 17  1  0
 16 17  2  0
 18 19  1  0
 15 18  1  0
 19 20  1  0
 19 22  1  0
 19 21  1  0
 23 24  1  0
 24 25  1  0
  1 26  1  0
  2 27  1  0
  6 28  1  1
  8 29  1  0
  9 30  1  0
 11 31  1  0
 12 32  1  0
 13 33  1  0
 14 34  1  1
 15 35  1  1
 17 36  1  0
 18 37  1  0
 18 38  1  0
 22 39  1  0
 22 40  1  0
 23 41  1  0
 23 42  1  0
 25 43  1  0
 25 44  1  0
 25 45  1  0
 26 46  1  0
M  END

