99444465
     RDKit          3D

 55 59  0  0  0  0  0  0  0  0999 V2000
   -1.0169    4.0754   -2.8910 N   0  0  0  0  0  0  0  0  0  0  0  0
   -0.8428    4.0605   -1.4777 C   0  0  0  0  0  0  0  0  0  0  0  0
   -0.3658    5.1204   -0.7999 N   0  0  0  0  0  0  0  0  0  0  0  0
   -0.2046    5.0996    0.5314 C   0  0  0  0  0  0  0  0  0  0  0  0
   -0.5310    3.9698    1.2473 C   0  0  0  0  0  0  0  0  0  0  0  0
   -1.0219    2.8729    0.5693 C   0  0  0  0  0  0  0  0  0  0  0  0
   -1.1860    2.9008   -0.8071 C   0  0  0  0  0  0  0  0  0  0  0  0
   -1.7014    1.7904   -1.5044 N   0  0  0  0  0  0  0  0  0  0  0  0
   -2.0343    0.5396   -0.8630 C   0  0  0  0  0  0  0  0  0  0  0  0
   -0.8315   -0.1620   -0.3668 C   0  0  0  0  0  0  0  0  0  0  0  0
    0.4558    0.2943   -0.5353 C   0  0  0  0  0  0  0  0  0  0  0  0
    1.5639   -0.4193   -0.0571 C   0  0  0  0  0  0  0  0  0  0  0  0
    1.3748   -1.6067    0.5982 C   0  0  0  0  0  0  0  0  0  0  0  0
    0.1086   -2.0927    0.7844 C   0  0  0  0  0  0  0  0  0  0  0  0
   -0.9899   -1.3729    0.3038 C   0  0  0  0  0  0  0  0  0  0  0  0
   -2.2853   -1.8385    0.4767 O   0  0  0  0  0  0  0  0  0  0  0  0
   -2.4634   -3.0604    1.1520 C   0  0  0  0  0  0  0  0  0  0  0  0
   -3.8878   -3.4388    1.2695 C   0  0  0  0  0  0  0  0  0  0  0  0
   -4.1745   -4.6404    1.8848 C   0  0  0  0  0  0  0  0  0  0  0  0
   -5.4748   -5.0951    2.0503 C   0  0  0  0  0  0  0  0  0  0  0  0
   -6.5002   -4.3037    1.5764 C   0  0  0  0  0  0  0  0  0  0  0  0
   -6.1865   -3.1014    0.9623 C   0  0  0  0  0  0  0  0  0  0  0  0
   -4.8983   -2.6987    0.8234 N   0  0  0  0  0  0  0  0  0  0  0  0
    2.9073    0.1367   -0.2763 C   0  0  0  0  0  0  0  0  0  0  0  0
    3.0602    1.5047   -0.3171 C   0  0  0  0  0  0  0  0  0  0  0  0
    4.3227    2.0708   -0.5227 C   0  0  0  0  0  0  0  0  0  0  0  0
    5.4118    1.2417   -0.6838 C   0  0  0  0  0  0  0  0  0  0  0  0
    6.7493    1.4972   -0.8972 C   0  0  0  0  0  0  0  0  0  0  0  0
    7.4198    0.2809   -0.9877 C   0  0  0  0  0  0  0  0  0  0  0  0
    6.5090   -0.6892   -0.8325 N   0  0  0  0  0  0  0  0  0  0  0  0
    5.2994   -0.1388   -0.6491 C   0  0  0  0  0  0  0  0  0  0  0  0
    4.0204   -0.6587   -0.4416 C   0  0  0  0  0  0  0  0  0  0  0  0
   -0.1786    4.2915   -3.4721 H   0  0  0  0  0  0  0  0  0  0  0  0
   -1.9689    3.8707   -3.2762 H   0  0  0  0  0  0  0  0  0  0  0  0
    0.1811    5.9767    1.0228 H   0  0  0  0  0  0  0  0  0  0  0  0
   -0.3971    3.9664    2.3128 H   0  0  0  0  0  0  0  0  0  0  0  0
   -1.2824    1.9716    1.1352 H   0  0  0  0  0  0  0  0  0  0  0  0
   -1.8538    1.8732   -2.5519 H   0  0  0  0  0  0  0  0  0  0  0  0
   -2.6320   -0.1049   -1.5614 H   0  0  0  0  0  0  0  0  0  0  0  0
   -2.7330    0.8058   -0.0226 H   0  0  0  0  0  0  0  0  0  0  0  0
    0.6223    1.2323   -1.0642 H   0  0  0  0  0  0  0  0  0  0  0  0
    2.2160   -2.1552    0.9649 H   0  0  0  0  0  0  0  0  0  0  0  0
   -0.0883   -3.0393    1.3032 H   0  0  0  0  0  0  0  0  0  0  0  0
   -1.9042   -3.8775    0.6281 H   0  0  0  0  0  0  0  0  0  0  0  0
   -2.0494   -3.0110    2.1867 H   0  0  0  0  0  0  0  0  0  0  0  0
   -3.3798   -5.2868    2.2694 H   0  0  0  0  0  0  0  0  0  0  0  0
   -5.6469   -6.0475    2.5411 H   0  0  0  0  0  0  0  0  0  0  0  0
   -7.5244   -4.6296    1.6901 H   0  0  0  0  0  0  0  0  0  0  0  0
   -7.0092   -2.5067    0.6034 H   0  0  0  0  0  0  0  0  0  0  0  0
    2.2180    2.1868   -0.1931 H   0  0  0  0  0  0  0  0  0  0  0  0
    4.4623    3.1390   -0.5577 H   0  0  0  0  0  0  0  0  0  0  0  0
    7.2424    2.4452   -0.9862 H   0  0  0  0  0  0  0  0  0  0  0  0
    8.4990    0.1857   -1.1562 H   0  0  0  0  0  0  0  0  0  0  0  0
    6.7004   -1.7091   -0.8500 H   0  0  0  0  0  0  0  0  0  0  0  0
    3.9003   -1.7158   -0.4100 H   0  0  0  0  0  0  0  0  0  0  0  0
  1  2  1  0
  2  3  2  0
  2  7  1  0
  3  4  1  0
  4  5  2  0
  5  6  1  0
  6  7  2  0
  7  8  1  0
  8  9  1  0
  9 10  1  0
 10 11  2  0
 10 15  1  0
 11 12  1  0
 12 24  1  0
 12 13  2  0
 13 14  1  0
 14 15  2  0
 15 16  1  0
 16 17  1  0
 17 18  1  0
 18 23  1  0
 18 19  2  0
 19 20  1  0
 20 21  2  0
 21 22  1  0
 22 23  2  0
 24 32  1  0
 24 25  2  0
 25 26  1  0
 26 27  2  0
 27 28  1  0
 27 31  1  0
 28 29  2  0
 29 30  1  0
 30 31  1  0
 31 32  2  0
  1 33  1  0
  1 34  1  0
  4 35  1  0
  5 36  1  0
  6 37  1  0
  8 38  1  0
  9 39  1  0
  9 40  1  0
 11 41  1  0
 13 42  1  0
 14 43  1  0
 17 44  1  0
 17 45  1  0
 19 46  1  0
 20 47  1  0
 21 48  1  0
 22 49  1  0
 25 50  1  0
 26 51  1  0
 28 52  1  0
 29 53  1  0
 30 54  1  0
 32 55  1  0
M  END

