99444215
     RDKit          3D

 60 60  0  0  1  0  0  0  0  0999 V2000
   -2.4264   -0.9327    0.0706 N   0  0  0  0  0  0  0  0  0  0  0  0
   -1.2849   -1.1934    0.7200 C   0  0  2  0  0  0  0  0  0  0  0  0
    0.6699   -1.1650   -0.6894 O   0  0  0  0  0  0  0  0  0  0  0  0
    0.1077   -0.9327    0.3782 C   0  0  0  0  0  0  0  0  0  0  0  0
   -1.2374   -2.8318    0.8068 C   0  0  0  0  0  0  0  0  0  0  0  0
   -1.1892   -3.3583   -0.5722 C   0  0  0  0  0  0  0  0  0  0  0  0
   -2.5178   -3.2380    1.4096 C   0  0  0  0  0  0  0  0  0  0  0  0
    0.9253   -0.3431    1.4454 N   0  0  0  0  0  0  0  0  0  0  0  0
    2.2716   -0.1785    1.3819 C   0  0  1  0  0  0  0  0  0  0  0  0
    2.2103    1.9215    0.4146 O   0  0  0  0  0  0  0  0  0  0  0  0
    2.8888   -1.4007    0.6079 C   0  0  0  0  0  0  0  0  0  0  0  0
    2.9586    0.9728    0.7865 C   0  0  0  0  0  0  0  0  0  0  0  0
    4.3490    0.9304    0.6651 N   0  0  0  0  0  0  0  0  0  0  0  0
    5.3430    1.7820    0.1363 C   0  0  2  0  0  0  0  0  0  0  0  0
    3.7210    3.0726   -1.0447 O   0  0  0  0  0  0  0  0  0  0  0  0
    4.6609    2.3419   -1.1476 C   0  0  0  0  0  0  0  0  0  0  0  0
    6.6710    1.2904   -0.2084 C   0  0  0  0  0  0  0  0  0  0  0  0
    7.4064    0.6678    0.8969 C   0  0  0  0  0  0  0  0  0  0  0  0
    6.8502    0.6495    2.0993 O   0  0  0  0  0  0  0  0  0  0  0  0
    8.6396    0.1116    0.8260 O   0  0  0  0  0  0  0  0  0  0  0  0
    5.2005    1.9248   -2.4696 C   0  0  0  0  0  0  0  0  0  0  0  0
    6.3476    2.4625   -2.8403 F   0  0  0  0  0  0  0  0  0  0  0  0
   -3.5974   -0.6608   -0.5559 C   0  0  0  0  0  0  0  0  0  0  0  0
   -4.0188   -0.5784   -1.8374 O   0  0  0  0  0  0  0  0  0  0  0  0
   -4.6461   -0.3954    0.2519 O   0  0  0  0  0  0  0  0  0  0  0  0
   -5.4511   -0.3517   -1.9982 C   0  0  0  0  0  0  0  0  0  0  0  0
   -5.9195    0.8106   -1.2392 C   0  0  0  0  0  0  0  0  0  0  0  0
   -5.1943    1.9683   -1.0184 C   0  0  0  0  0  0  0  0  0  0  0  0
   -5.6504    3.0305   -0.2860 C   0  0  0  0  0  0  0  0  0  0  0  0
   -6.9426    2.8916    0.2692 C   0  0  0  0  0  0  0  0  0  0  0  0
   -7.7057    1.7882    0.1009 C   0  0  0  0  0  0  0  0  0  0  0  0
   -7.2205    0.7775   -0.6347 C   0  0  0  0  0  0  0  0  0  0  0  0
   -2.8707   -0.1713    1.1297 H   0  0  0  0  0  0  0  0  0  0  0  0
   -1.3563   -1.0336    1.8457 H   0  0  0  0  0  0  0  0  0  0  0  0
   -0.3815   -3.0366    1.3840 H   0  0  0  0  0  0  0  0  0  0  0  0
   -0.2335   -3.9583   -0.7537 H   0  0  0  0  0  0  0  0  0  0  0  0
   -1.9742   -4.1516   -0.7321 H   0  0  0  0  0  0  0  0  0  0  0  0
   -1.3318   -2.6347   -1.3686 H   0  0  0  0  0  0  0  0  0  0  0  0
   -2.5363   -4.3212    1.6780 H   0  0  0  0  0  0  0  0  0  0  0  0
   -2.8281   -2.6795    2.3325 H   0  0  0  0  0  0  0  0  0  0  0  0
   -3.3363   -3.1637    0.6120 H   0  0  0  0  0  0  0  0  0  0  0  0
    0.4087    0.0366    2.3190 H   0  0  0  0  0  0  0  0  0  0  0  0
    2.7090   -0.3756    2.4375 H   0  0  0  0  0  0  0  0  0  0  0  0
    2.2088   -2.2631    0.6547 H   0  0  0  0  0  0  0  0  0  0  0  0
    3.8044   -1.7112    1.1841 H   0  0  0  0  0  0  0  0  0  0  0  0
    3.1179   -1.1179   -0.3900 H   0  0  0  0  0  0  0  0  0  0  0  0
    4.7832    0.0239    1.1263 H   0  0  0  0  0  0  0  0  0  0  0  0
    5.3863    2.7484    0.7551 H   0  0  0  0  0  0  0  0  0  0  0  0
    7.2761    2.2046   -0.5047 H   0  0  0  0  0  0  0  0  0  0  0  0
    6.6864    0.6782   -1.1415 H   0  0  0  0  0  0  0  0  0  0  0  0
    9.4380    0.3954    0.2973 H   0  0  0  0  0  0  0  0  0  0  0  0
    4.4085    2.2051   -3.2375 H   0  0  0  0  0  0  0  0  0  0  0  0
    5.1615    0.7827   -2.5100 H   0  0  0  0  0  0  0  0  0  0  0  0
   -5.9555   -1.2366   -1.5841 H   0  0  0  0  0  0  0  0  0  0  0  0
   -5.7210   -0.2940   -3.0488 H   0  0  0  0  0  0  0  0  0  0  0  0
   -4.2068    2.0338   -1.4728 H   0  0  0  0  0  0  0  0  0  0  0  0
   -5.0904    3.9355   -0.1176 H   0  0  0  0  0  0  0  0  0  0  0  0
   -7.3078    3.7405    0.8628 H   0  0  0  0  0  0  0  0  0  0  0  0
   -8.6932    1.6915    0.5297 H   0  0  0  0  0  0  0  0  0  0  0  0
   -7.7847   -0.1617   -0.8162 H   0  0  0  0  0  0  0  0  0  0  0  0
  4  8  1  0
 12 13  1  0
  1  2  1  0
  2  4  1  0
  3  4  2  0
  2  5  1  0
  5  6  1  0
  5  7  1  0
  8  9  1  0
  9 12  1  0
 10 12  2  0
  9 11  1  0
 13 14  1  0
 14 16  1  0
 15 16  2  0
 14 17  1  0
 17 18  1  0
 18 19  2  0
 18 20  1  0
 16 21  1  0
 21 22  1  0
  1 23  1  0
 23 24  1  0
 23 25  2  0
 24 26  1  0
 26 27  1  0
 27 28  2  0
 28 29  1  0
 29 30  2  0
 30 31  1  0
 31 32  2  0
 27 32  1  0
  1 33  1  0
  2 34  1  1
  5 35  1  0
  6 36  1  0
  6 37  1  0
  6 38  1  0
  7 39  1  0
  7 40  1  0
  7 41  1  0
  8 42  1  0
  9 43  1  1
 11 44  1  0
 11 45  1  0
 11 46  1  0
 13 47  1  0
 14 48  1  1
 17 49  1  0
 17 50  1  0
 20 51  1  0
 21 52  1  0
 21 53  1  0
 26 54  1  0
 26 55  1  0
 28 56  1  0
 29 57  1  0
 30 58  1  0
 31 59  1  0
 32 60  1  0
M  END

