99443678
     RDKit          3D

 38 41  0  0  0  0  0  0  0  0999 V2000
    4.9747   -0.3014    0.2924 C   0  0  0  0  0  0  0  0  0  0  0  0
    5.0940    0.8882   -0.4359 C   0  0  0  0  0  0  0  0  0  0  0  0
    3.9663    1.5566   -0.8648 C   0  0  0  0  0  0  0  0  0  0  0  0
    2.6939    1.0861   -0.5969 C   0  0  0  0  0  0  0  0  0  0  0  0
    2.5571   -0.0797    0.1166 C   0  0  0  0  0  0  0  0  0  0  0  0
    3.7119   -0.7447    0.5439 C   0  0  0  0  0  0  0  0  0  0  0  0
    6.1604   -1.0141    0.7494 C   0  0  0  0  0  0  0  0  0  0  0  0
    7.4515   -0.4705    0.4369 N   0  0  0  0  0  0  0  0  0  0  0  0
    6.1524   -2.1065    1.4200 N   0  0  0  0  0  0  0  0  0  0  0  0
    1.4477    1.5097   -0.8775 N   0  0  0  0  0  0  0  0  0  0  0  0
    1.2356   -0.3026    0.2317 N   0  0  0  0  0  0  0  0  0  0  0  0
    0.5364    0.6515   -0.3656 C   0  0  0  0  0  0  0  0  0  0  0  0
   -0.9101    0.8202   -0.4930 C   0  0  0  0  0  0  0  0  0  0  0  0
   -1.8984   -0.0150    0.0034 C   0  0  0  0  0  0  0  0  0  0  0  0
   -1.6411   -1.1725    0.7184 O   0  0  0  0  0  0  0  0  0  0  0  0
   -3.1410    0.4791   -0.3204 C   0  0  0  0  0  0  0  0  0  0  0  0
   -2.8713    1.6202   -1.0166 N   0  0  0  0  0  0  0  0  0  0  0  0
   -1.5646    1.8095   -1.1112 N   0  0  0  0  0  0  0  0  0  0  0  0
   -4.4653   -0.0402   -0.0234 C   0  0  0  0  0  0  0  0  0  0  0  0
   -5.5606    0.6619   -0.4727 C   0  0  0  0  0  0  0  0  0  0  0  0
   -6.8322    0.1956   -0.2074 C   0  0  0  0  0  0  0  0  0  0  0  0
   -7.0442   -0.9709    0.5054 C   0  0  0  0  0  0  0  0  0  0  0  0
   -5.9218   -1.6456    0.9384 C   0  0  0  0  0  0  0  0  0  0  0  0
   -4.6442   -1.2003    0.6860 C   0  0  0  0  0  0  0  0  0  0  0  0
    6.0873    1.2608   -0.6483 H   0  0  0  0  0  0  0  0  0  0  0  0
    4.0508    2.4820   -1.4315 H   0  0  0  0  0  0  0  0  0  0  0  0
    3.5455   -1.6525    1.0984 H   0  0  0  0  0  0  0  0  0  0  0  0
    7.6850   -0.1564   -0.5286 H   0  0  0  0  0  0  0  0  0  0  0  0
    8.1272   -0.4115    1.2232 H   0  0  0  0  0  0  0  0  0  0  0  0
    5.2648   -2.5468    1.6757 H   0  0  0  0  0  0  0  0  0  0  0  0
    1.2093    2.3804   -1.4159 H   0  0  0  0  0  0  0  0  0  0  0  0
   -0.7195   -1.4866    0.9265 H   0  0  0  0  0  0  0  0  0  0  0  0
   -3.6133    2.2427   -1.4110 H   0  0  0  0  0  0  0  0  0  0  0  0
   -5.4970    1.5837   -1.0378 H   0  0  0  0  0  0  0  0  0  0  0  0
   -7.6913    0.7588   -0.5675 H   0  0  0  0  0  0  0  0  0  0  0  0
   -8.0447   -1.3326    0.7110 H   0  0  0  0  0  0  0  0  0  0  0  0
   -6.0650   -2.5457    1.4888 H   0  0  0  0  0  0  0  0  0  0  0  0
   -3.8262   -1.7908    1.0623 H   0  0  0  0  0  0  0  0  0  0  0  0
  1  2  2  0
  1  6  1  0
  1  7  1  0
  2  3  1  0
  3  4  2  0
  4  5  1  0
  4 10  1  0
  5  6  2  0
  5 11  1  0
  7  8  1  0
  7  9  2  3
 10 12  1  0
 11 12  2  0
 12 13  1  0
 13 14  1  0
 13 18  2  0
 14 15  1  0
 14 16  2  0
 16 17  1  0
 16 19  1  0
 17 18  1  0
 19 20  2  0
 19 24  1  0
 20 21  1  0
 21 22  2  0
 22 23  1  0
 23 24  2  0
  2 25  1  0
  3 26  1  0
  6 27  1  0
  8 28  1  0
  8 29  1  0
  9 30  1  0
 10 31  1  0
 15 32  1  0
 17 33  1  0
 20 34  1  0
 21 35  1  0
 22 36  1  0
 23 37  1  0
 24 38  1  0
M  END

