99444964
     RDKit          3D

 67 69  0  0  1  0  0  0  0  0999 V2000
    4.8651   -2.0422   -1.3199 C   0  0  0  0  0  0  0  0  0  0  0  0
    4.7667   -2.2950   -2.5361 O   0  0  0  0  0  0  0  0  0  0  0  0
    4.9974   -3.0761   -0.4037 O   0  0  0  0  0  0  0  0  0  0  0  0
    4.8407   -0.6177   -0.8490 C   0  0  0  0  0  0  0  0  0  0  0  0
    3.4975   -0.2225   -0.3598 C   0  0  2  0  0  0  0  0  0  0  0  0
    2.4843   -0.3818   -1.4562 C   0  0  0  0  0  0  0  0  0  0  0  0
    2.8848   -0.6067   -2.6105 O   0  0  0  0  0  0  0  0  0  0  0  0
    1.0874   -0.2846   -1.2386 N   0  0  0  0  0  0  0  0  0  0  0  0
    0.0973   -0.4296   -2.2745 C   0  0  2  0  0  0  0  0  0  0  0  0
   -0.6626    0.8217   -2.5158 C   0  0  0  0  0  0  0  0  0  0  0  0
   -1.1937    0.8655   -3.6738 O   0  0  0  0  0  0  0  0  0  0  0  0
   -0.8554    1.9048   -1.6664 N   0  0  0  0  0  0  0  0  0  0  0  0
   -1.3006    1.9090   -0.2938 C   0  0  0  0  0  0  0  0  0  0  0  0
   -2.6823    2.5245   -0.1516 C   0  0  0  0  0  0  0  0  0  0  0  0
   -3.2380    2.3826    1.2082 C   0  0  0  0  0  0  0  0  0  0  0  0
   -4.0988    1.2075    1.4768 C   0  0  0  0  0  0  0  0  0  0  0  0
   -5.1769    0.9211    0.4881 C   0  0  0  0  0  0  0  0  0  0  0  0
   -5.1780   -0.5111    0.0556 C   0  0  0  0  0  0  0  0  0  0  0  0
   -3.8545   -1.0620   -0.2844 N   0  0  0  0  0  0  0  0  0  0  0  0
    3.3894    1.1445    0.2002 C   0  0  0  0  0  0  0  0  0  0  0  0
    4.2456    1.4525    1.3740 C   0  0  0  0  0  0  0  0  0  0  0  0
    3.8654    2.9014    1.7888 C   0  0  0  0  0  0  0  0  0  0  0  0
    5.7350    1.5353    1.0831 C   0  0  0  0  0  0  0  0  0  0  0  0
   -0.7125   -1.6440   -2.1013 C   0  0  0  0  0  0  0  0  0  0  0  0
   -1.9274   -1.5509   -1.2101 C   0  0  0  0  0  0  0  0  0  0  0  0
   -3.0582   -0.7915   -1.3229 C   0  0  0  0  0  0  0  0  0  0  0  0
   -2.0512   -2.3270   -0.0278 C   0  0  0  0  0  0  0  0  0  0  0  0
   -3.2514   -2.0043    0.5231 C   0  0  0  0  0  0  0  0  0  0  0  0
   -1.2072   -3.2672    0.5802 C   0  0  0  0  0  0  0  0  0  0  0  0
   -3.6486   -2.6260    1.7224 C   0  0  0  0  0  0  0  0  0  0  0  0
   -1.6030   -3.8711    1.7533 C   0  0  0  0  0  0  0  0  0  0  0  0
   -2.8130   -3.5505    2.3152 C   0  0  0  0  0  0  0  0  0  0  0  0
    4.9906   -4.0424   -0.6582 H   0  0  0  0  0  0  0  0  0  0  0  0
    5.5709   -0.6394    0.0177 H   0  0  0  0  0  0  0  0  0  0  0  0
    5.2633    0.0225   -1.6180 H   0  0  0  0  0  0  0  0  0  0  0  0
    3.1891   -1.0072    0.4018 H   0  0  0  0  0  0  0  0  0  0  0  0
    0.7612   -0.0999   -0.2696 H   0  0  0  0  0  0  0  0  0  0  0  0
    0.7075   -0.6134   -3.2189 H   0  0  0  0  0  0  0  0  0  0  0  0
   -0.6503    2.8762   -2.0626 H   0  0  0  0  0  0  0  0  0  0  0  0
   -1.3202    0.9378    0.2015 H   0  0  0  0  0  0  0  0  0  0  0  0
   -0.6218    2.5513    0.3346 H   0  0  0  0  0  0  0  0  0  0  0  0
   -2.5484    3.6122   -0.3765 H   0  0  0  0  0  0  0  0  0  0  0  0
   -3.2845    2.1112   -0.9681 H   0  0  0  0  0  0  0  0  0  0  0  0
   -2.3572    2.2948    1.9130 H   0  0  0  0  0  0  0  0  0  0  0  0
   -3.7207    3.3387    1.5156 H   0  0  0  0  0  0  0  0  0  0  0  0
   -3.4508    0.2955    1.5736 H   0  0  0  0  0  0  0  0  0  0  0  0
   -4.5065    1.3454    2.5230 H   0  0  0  0  0  0  0  0  0  0  0  0
   -5.1566    1.5576   -0.4189 H   0  0  0  0  0  0  0  0  0  0  0  0
   -6.1486    1.1992    0.9921 H   0  0  0  0  0  0  0  0  0  0  0  0
   -5.6288   -1.0458    0.9504 H   0  0  0  0  0  0  0  0  0  0  0  0
   -5.9239   -0.6470   -0.7080 H   0  0  0  0  0  0  0  0  0  0  0  0
    3.6447    1.8655   -0.6306 H   0  0  0  0  0  0  0  0  0  0  0  0
    2.3375    1.3999    0.5015 H   0  0  0  0  0  0  0  0  0  0  0  0
    4.0636    0.7825    2.2258 H   0  0  0  0  0  0  0  0  0  0  0  0
    2.7732    2.9278    1.8532 H   0  0  0  0  0  0  0  0  0  0  0  0
    4.2520    3.5746    1.0238 H   0  0  0  0  0  0  0  0  0  0  0  0
    4.3365    3.1122    2.7598 H   0  0  0  0  0  0  0  0  0  0  0  0
    6.3032    0.7803    1.6365 H   0  0  0  0  0  0  0  0  0  0  0  0
    6.1365    2.5265    1.5004 H   0  0  0  0  0  0  0  0  0  0  0  0
    5.9609    1.6142    0.0151 H   0  0  0  0  0  0  0  0  0  0  0  0
   -1.0025   -2.0134   -3.0977 H   0  0  0  0  0  0  0  0  0  0  0  0
   -0.0280   -2.4716   -1.7551 H   0  0  0  0  0  0  0  0  0  0  0  0
   -3.2926   -0.0292   -2.1716 H   0  0  0  0  0  0  0  0  0  0  0  0
   -0.2613   -3.5205    0.1441 H   0  0  0  0  0  0  0  0  0  0  0  0
   -4.5958   -2.3917    2.1850 H   0  0  0  0  0  0  0  0  0  0  0  0
   -0.9327   -4.5832    2.1881 H   0  0  0  0  0  0  0  0  0  0  0  0
   -3.1028   -4.0298    3.2242 H   0  0  0  0  0  0  0  0  0  0  0  0
  1  2  2  0
  1  3  1  0
  1  4  1  0
  4  5  1  0
  5  6  1  0
  5 20  1  0
  6  7  2  0
  6  8  1  0
  9  8  1  0
  9 10  1  0
  9 24  1  0
 10 11  2  0
 10 12  1  0
 12 13  1  0
 13 14  1  0
 14 15  1  0
 15 16  1  0
 16 17  1  0
 17 18  1  0
 18 19  1  0
 19 26  1  0
 19 28  1  0
 20 21  1  0
 21 22  1  0
 21 23  1  0
 24 25  1  0
 25 26  2  0
 25 27  1  0
 27 28  2  0
 27 29  1  0
 28 30  1  0
 29 31  2  0
 30 32  2  0
 31 32  1  0
  3 33  1  0
  4 34  1  0
  4 35  1  0
  5 36  1  1
  8 37  1  0
  9 38  1  6
 12 39  1  0
 13 40  1  0
 13 41  1  0
 14 42  1  0
 14 43  1  0
 15 44  1  0
 15 45  1  0
 16 46  1  0
 16 47  1  0
 17 48  1  0
 17 49  1  0
 18 50  1  0
 18 51  1  0
 20 52  1  0
 20 53  1  0
 21 54  1  0
 22 55  1  0
 22 56  1  0
 22 57  1  0
 23 58  1  0
 23 59  1  0
 23 60  1  0
 24 61  1  0
 24 62  1  0
 26 63  1  0
 29 64  1  0
 30 65  1  0
 31 66  1  0
 32 67  1  0
M  END

