99444739
     RDKit          3D

 41 44  0  0  0  0  0  0  0  0999 V2000
   -0.1091   -2.2422   -1.1222 C   0  0  0  0  0  0  0  0  0  0  0  0
   -1.2242   -1.5076   -0.4818 C   0  0  0  0  0  0  0  0  0  0  0  0
   -1.3288   -0.1386   -0.5995 C   0  0  0  0  0  0  0  0  0  0  0  0
   -0.4133    0.5180   -1.3259 N   0  0  0  0  0  0  0  0  0  0  0  0
   -0.4716    1.8506   -1.4800 C   0  0  0  0  0  0  0  0  0  0  0  0
    0.5102    2.5583   -2.2611 N   0  0  0  0  0  0  0  0  0  0  0  0
   -1.4795    2.5156   -0.8825 N   0  0  0  0  0  0  0  0  0  0  0  0
   -2.4328    1.9362   -0.1415 C   0  0  0  0  0  0  0  0  0  0  0  0
   -3.3738    2.5576    0.4163 O   0  0  0  0  0  0  0  0  0  0  0  0
   -2.3722    0.5653    0.0164 C   0  0  0  0  0  0  0  0  0  0  0  0
   -3.3147   -0.0941    0.7515 C   0  0  0  0  0  0  0  0  0  0  0  0
   -3.2281   -1.4542    0.8798 C   0  0  0  0  0  0  0  0  0  0  0  0
   -3.9989   -2.3317    1.5275 N   0  0  0  0  0  0  0  0  0  0  0  0
   -3.4787   -3.5787    1.3437 C   0  0  0  0  0  0  0  0  0  0  0  0
   -2.3794   -3.4415    0.5738 N   0  0  0  0  0  0  0  0  0  0  0  0
   -2.2020   -2.1467    0.2742 C   0  0  0  0  0  0  0  0  0  0  0  0
    1.1776   -2.2168   -0.4170 C   0  0  0  0  0  0  0  0  0  0  0  0
    1.8558   -0.9722   -0.1347 C   0  0  0  0  0  0  0  0  0  0  0  0
    1.5853   -0.3638    1.0797 C   0  0  0  0  0  0  0  0  0  0  0  0
    2.1830    0.8231    1.4484 C   0  0  0  0  0  0  0  0  0  0  0  0
    3.0897    1.4652    0.6109 C   0  0  0  0  0  0  0  0  0  0  0  0
    3.7534    2.7258    0.9539 C   0  0  0  0  0  0  0  0  0  0  0  0
    3.3376    0.8366   -0.5882 C   0  0  0  0  0  0  0  0  0  0  0  0
    2.7511   -0.3411   -0.9655 C   0  0  0  0  0  0  0  0  0  0  0  0
   -0.0472   -2.0219   -2.2179 H   0  0  0  0  0  0  0  0  0  0  0  0
   -0.4391   -3.3293   -1.1239 H   0  0  0  0  0  0  0  0  0  0  0  0
    1.2104    3.1037   -1.7178 H   0  0  0  0  0  0  0  0  0  0  0  0
    0.5647    2.5620   -3.2806 H   0  0  0  0  0  0  0  0  0  0  0  0
   -1.5180    3.5550   -1.0078 H   0  0  0  0  0  0  0  0  0  0  0  0
   -4.1035    0.4995    1.2077 H   0  0  0  0  0  0  0  0  0  0  0  0
   -4.8584   -2.0870    2.0803 H   0  0  0  0  0  0  0  0  0  0  0  0
   -3.9034   -4.4953    1.7603 H   0  0  0  0  0  0  0  0  0  0  0  0
    1.0325   -2.7721    0.5603 H   0  0  0  0  0  0  0  0  0  0  0  0
    1.9439   -2.8714   -0.9376 H   0  0  0  0  0  0  0  0  0  0  0  0
    0.8789   -0.8099    1.7968 H   0  0  0  0  0  0  0  0  0  0  0  0
    1.9884    1.3188    2.3917 H   0  0  0  0  0  0  0  0  0  0  0  0
    3.3962    3.5781    0.3048 H   0  0  0  0  0  0  0  0  0  0  0  0
    4.8541    2.6948    0.7837 H   0  0  0  0  0  0  0  0  0  0  0  0
    3.5641    3.0534    1.9944 H   0  0  0  0  0  0  0  0  0  0  0  0
    4.0427    1.3182   -1.2607 H   0  0  0  0  0  0  0  0  0  0  0  0
    2.9570   -0.8195   -1.9083 H   0  0  0  0  0  0  0  0  0  0  0  0
  1  2  1  0
  1 17  1  0
  2  3  2  0
  2 16  1  0
  3  4  1  0
  3 10  1  0
  4  5  2  0
  5  6  1  0
  5  7  1  0
  7  8  1  0
  8  9  2  0
  8 10  1  0
 10 11  2  0
 11 12  1  0
 12 13  1  0
 12 16  2  0
 13 14  1  0
 14 15  2  0
 15 16  1  0
 17 18  1  0
 18 19  2  0
 18 24  1  0
 19 20  1  0
 20 21  2  0
 21 22  1  0
 21 23  1  0
 23 24  2  0
  1 25  1  0
  1 26  1  0
  6 27  1  0
  6 28  1  0
  7 29  1  0
 11 30  1  0
 13 31  1  0
 14 32  1  0
 17 33  1  0
 17 34  1  0
 19 35  1  0
 20 36  1  0
 22 37  1  0
 22 38  1  0
 22 39  1  0
 23 40  1  0
 24 41  1  0
M  END

