99445264
     RDKit          3D

 46 49  0  0  0  0  0  0  0  0999 V2000
   -0.8344    4.9845    0.0322 C   0  0  0  0  0  0  0  0  0  0  0  0
    0.2133    4.3356   -0.8083 C   0  0  0  0  0  0  0  0  0  0  0  0
   -5.4105   -1.3857    0.3415 C   0  0  0  0  0  0  0  0  0  0  0  0
    4.4604   -3.6974    0.4671 C   0  0  0  0  0  0  0  0  0  0  0  0
   -5.3853   -1.7803   -0.9842 C   0  0  0  0  0  0  0  0  0  0  0  0
    5.3438   -3.0548   -0.3653 C   0  0  0  0  0  0  0  0  0  0  0  0
   -4.2762   -0.8061    0.8675 C   0  0  0  0  0  0  0  0  0  0  0  0
    3.2927   -3.0482    0.8046 C   0  0  0  0  0  0  0  0  0  0  0  0
   -4.2489   -1.5908   -1.7404 C   0  0  0  0  0  0  0  0  0  0  0  0
    5.0860   -1.7970   -0.8587 C   0  0  0  0  0  0  0  0  0  0  0  0
   -3.1312   -0.6015    0.1503 C   0  0  0  0  0  0  0  0  0  0  0  0
    2.9929   -1.7875    0.3340 C   0  0  0  0  0  0  0  0  0  0  0  0
   -3.1372   -1.0055   -1.1681 C   0  0  0  0  0  0  0  0  0  0  0  0
    3.9112   -1.1598   -0.5110 C   0  0  0  0  0  0  0  0  0  0  0  0
    0.3305    0.8043    0.5395 C   0  0  0  0  0  0  0  0  0  0  0  0
   -0.8855    0.1724   -0.0417 C   0  0  0  0  0  0  0  0  0  0  0  0
    1.5927    0.1414    0.1534 C   0  0  0  0  0  0  0  0  0  0  0  0
   -2.0262   -0.0134    0.7370 C   0  0  0  0  0  0  0  0  0  0  0  0
    1.8233   -1.1500    0.6785 C   0  0  0  0  0  0  0  0  0  0  0  0
    0.3457    2.2499    0.3791 C   0  0  0  0  0  0  0  0  0  0  0  0
   -0.9589   -0.2553   -1.3557 C   0  0  0  0  0  0  0  0  0  0  0  0
    2.5576    0.6595   -0.6621 C   0  0  0  0  0  0  0  0  0  0  0  0
   -1.9886    0.3976    2.0416 O   0  0  0  0  0  0  0  0  0  0  0  0
    0.8799   -1.7102    1.5029 O   0  0  0  0  0  0  0  0  0  0  0  0
    0.5222    2.9724    1.4195 O   0  0  0  0  0  0  0  0  0  0  0  0
    0.0878   -0.0792   -2.0508 O   0  0  0  0  0  0  0  0  0  0  0  0
    2.4155    1.7952   -1.1578 O   0  0  0  0  0  0  0  0  0  0  0  0
    0.1821    2.9457   -0.8059 O   0  0  0  0  0  0  0  0  0  0  0  0
   -2.0389   -0.8082   -1.8560 O   0  0  0  0  0  0  0  0  0  0  0  0
    3.6637    0.0292   -0.9744 O   0  0  0  0  0  0  0  0  0  0  0  0
   -0.6427    4.9717    1.1113 H   0  0  0  0  0  0  0  0  0  0  0  0
   -0.8392    6.0778   -0.2570 H   0  0  0  0  0  0  0  0  0  0  0  0
   -1.8634    4.6215   -0.2426 H   0  0  0  0  0  0  0  0  0  0  0  0
    0.0510    4.7004   -1.8636 H   0  0  0  0  0  0  0  0  0  0  0  0
    1.1938    4.7626   -0.5110 H   0  0  0  0  0  0  0  0  0  0  0  0
   -6.2923   -1.5252    0.9523 H   0  0  0  0  0  0  0  0  0  0  0  0
    4.7039   -4.6863    0.8318 H   0  0  0  0  0  0  0  0  0  0  0  0
   -6.2812   -2.2314   -1.3805 H   0  0  0  0  0  0  0  0  0  0  0  0
    6.2923   -3.5286   -0.6664 H   0  0  0  0  0  0  0  0  0  0  0  0
   -4.3215   -0.5060    1.9056 H   0  0  0  0  0  0  0  0  0  0  0  0
    2.5918   -3.5504    1.4603 H   0  0  0  0  0  0  0  0  0  0  0  0
   -4.2616   -1.9125   -2.7803 H   0  0  0  0  0  0  0  0  0  0  0  0
    5.7764   -1.2754   -1.5192 H   0  0  0  0  0  0  0  0  0  0  0  0
    0.2380    0.5744    1.6584 H   0  0  0  0  0  0  0  0  0  0  0  0
   -2.6983    0.3459    2.7339 H   0  0  0  0  0  0  0  0  0  0  0  0
    0.9734   -2.5954    1.9002 H   0  0  0  0  0  0  0  0  0  0  0  0
  1  2  1  0
  3  5  2  0
  4  6  2  0
  3  7  1  0
  4  8  1  0
  5  9  1  0
  6 10  1  0
  7 11  2  0
  8 12  2  0
  9 13  2  0
 11 13  1  0
 10 14  2  0
 12 14  1  0
 15 16  1  0
 15 17  1  0
 11 18  1  0
 16 18  2  0
 12 19  1  0
 17 19  2  0
 15 20  1  0
 16 21  1  0
 17 22  1  0
 18 23  1  0
 19 24  1  0
 20 25  2  0
 21 26  2  0
 22 27  2  0
  2 28  1  0
 20 28  1  0
 13 29  1  0
 21 29  1  0
 14 30  1  0
 22 30  1  0
  1 31  1  0
  1 32  1  0
  1 33  1  0
  2 34  1  0
  2 35  1  0
  3 36  1  0
  4 37  1  0
  5 38  1  0
  6 39  1  0
  7 40  1  0
  8 41  1  0
  9 42  1  0
 10 43  1  0
 15 44  1  0
 23 45  1  0
 24 46  1  0
M  END

