99444662
     RDKit          3D

 38 41  0  0  0  0  0  0  0  0999 V2000
   -2.9494    1.1044   -1.2402 C   0  0  0  0  0  0  0  0  0  0  0  0
   -4.3212    0.8516    0.6670 C   0  0  0  0  0  0  0  0  0  0  0  0
    1.9700   -0.4079   -1.2640 C   0  0  0  0  0  0  0  0  0  0  0  0
    3.3019   -0.4586    0.7006 C   0  0  0  0  0  0  0  0  0  0  0  0
    2.9177    0.3989   -1.8735 C   0  0  0  0  0  0  0  0  0  0  0  0
   -0.9143   -0.5021    0.2724 C   0  0  0  0  0  0  0  0  0  0  0  0
   -3.1758    0.4804   -0.0403 C   0  0  0  0  0  0  0  0  0  0  0  0
    4.0538    0.7764   -1.1999 C   0  0  0  0  0  0  0  0  0  0  0  0
   -0.1348   -1.5011    0.8279 C   0  0  0  0  0  0  0  0  0  0  0  0
    5.0789    1.6225   -1.7939 C   0  0  0  0  0  0  0  0  0  0  0  0
   -4.9330    2.4285   -1.0504 C   0  0  0  0  0  0  0  0  0  0  0  0
   -3.8029    2.0773   -1.7716 C   0  0  0  0  0  0  0  0  0  0  0  0
   -5.1772    1.8170    0.1503 C   0  0  0  0  0  0  0  0  0  0  0  0
    4.2510    0.3441    0.1022 C   0  0  0  0  0  0  0  0  0  0  0  0
    1.5047   -2.8456    1.4908 C   0  0  0  0  0  0  0  0  0  0  0  0
   -2.7849   -1.5572    1.2781 C   0  0  0  0  0  0  0  0  0  0  0  0
    2.1490   -0.8467    0.0291 C   0  0  0  0  0  0  0  0  0  0  0  0
   -2.2799   -0.5301    0.5038 C   0  0  0  0  0  0  0  0  0  0  0  0
    1.2240   -1.6976    0.7539 C   0  0  0  0  0  0  0  0  0  0  0  0
   -0.6715   -2.5247    1.6051 C   0  0  0  0  0  0  0  0  0  0  0  0
    0.3439   -3.3122    1.9849 N   0  0  0  0  0  0  0  0  0  0  0  0
   -2.0055   -2.5146    1.8055 N   0  0  0  0  0  0  0  0  0  0  0  0
    4.9184    2.0230   -2.9717 O   0  0  0  0  0  0  0  0  0  0  0  0
    6.2137    1.9895   -1.0956 O   0  0  0  0  0  0  0  0  0  0  0  0
   -2.0669    0.8305   -1.8021 H   0  0  0  0  0  0  0  0  0  0  0  0
   -4.5248    0.3795    1.6094 H   0  0  0  0  0  0  0  0  0  0  0  0
    1.0926   -0.7002   -1.7894 H   0  0  0  0  0  0  0  0  0  0  0  0
    3.5059   -0.7668    1.7183 H   0  0  0  0  0  0  0  0  0  0  0  0
    2.7940    0.7544   -2.8908 H   0  0  0  0  0  0  0  0  0  0  0  0
   -0.5080    0.3005   -0.3330 H   0  0  0  0  0  0  0  0  0  0  0  0
   -5.6261    3.1824   -1.4274 H   0  0  0  0  0  0  0  0  0  0  0  0
   -3.5996    2.5533   -2.7211 H   0  0  0  0  0  0  0  0  0  0  0  0
   -6.0726    2.1094    0.7026 H   0  0  0  0  0  0  0  0  0  0  0  0
    5.1495    0.6367    0.6489 H   0  0  0  0  0  0  0  0  0  0  0  0
    2.5044   -3.2531    1.6149 H   0  0  0  0  0  0  0  0  0  0  0  0
   -3.8740   -1.5462    1.4400 H   0  0  0  0  0  0  0  0  0  0  0  0
    0.2330   -4.1748    2.5876 H   0  0  0  0  0  0  0  0  0  0  0  0
    6.2158    2.4794   -0.2197 H   0  0  0  0  0  0  0  0  0  0  0  0
  1  7  2  0
  2  7  1  0
  4 17  2  0
  3  5  2  0
  6  9  2  0
  7 18  1  0
  5  8  1  0
  9 19  1  0
  9 20  1  0
  8 10  1  0
 10 24  1  0
 11 13  1  0
 11 12  2  0
  1 12  1  0
  2 13  2  0
  4 14  1  0
  8 14  2  0
 15 21  1  0
 16 22  1  0
  3 17  1  0
 17 19  1  0
  6 18  1  0
 16 18  2  0
 15 19  2  0
 20 21  1  0
 20 22  2  0
 10 23  2  0
  1 25  1  0
  2 26  1  0
  3 27  1  0
  4 28  1  0
  5 29  1  0
  6 30  1  0
 11 31  1  0
 12 32  1  0
 13 33  1  0
 14 34  1  0
 15 35  1  0
 16 36  1  0
 21 37  1  0
 24 38  1  0
M  END

