99445037
     RDKit          3D

 37 38  0  0  1  0  0  0  0  0999 V2000
    0.8318   -0.4199    1.2161 C   0  0  0  0  0  0  0  0  0  0  0  0
    1.6533    0.1296    0.2585 C   0  0  0  0  0  0  0  0  0  0  0  0
    2.6510    1.0319    0.5889 C   0  0  0  0  0  0  0  0  0  0  0  0
    2.8468    1.4003    1.8863 C   0  0  0  0  0  0  0  0  0  0  0  0
    2.0576    0.8778    2.8616 C   0  0  0  0  0  0  0  0  0  0  0  0
    1.0750   -0.0119    2.5222 C   0  0  0  0  0  0  0  0  0  0  0  0
    1.5636   -0.1952   -1.0913 C   0  0  0  0  0  0  0  0  0  0  0  0
    2.3915    0.3307   -2.0530 C   0  0  0  0  0  0  0  0  0  0  0  0
    3.3662    1.2186   -1.7166 C   0  0  0  0  0  0  0  0  0  0  0  0
    3.4791    1.5555   -0.3891 C   0  0  0  0  0  0  0  0  0  0  0  0
   -0.2445   -1.2995    0.8393 C   0  0  0  0  0  0  0  0  0  0  0  0
   -1.5554   -0.8033    0.4608 C   0  0  1  0  0  0  0  0  0  0  0  0
   -2.1948    2.2319   -1.7974 C   0  0  0  0  0  0  0  0  0  0  0  0
   -2.1734    1.3998   -0.5745 C   0  0  0  0  0  0  0  0  0  0  0  0
   -1.6215    0.0793   -0.6670 N   0  0  0  0  0  0  0  0  0  0  0  0
   -2.6189    1.8011    0.5435 O   0  0  0  0  0  0  0  0  0  0  0  0
   -1.7226   -2.7847   -0.9830 O   0  0  0  0  0  0  0  0  0  0  0  0
   -3.7810   -1.6436   -0.4322 O   0  0  0  0  0  0  0  0  0  0  0  0
   -2.5578   -2.9576    1.2190 O   0  0  0  0  0  0  0  0  0  0  0  0
   -2.4938   -2.0670    0.0716 B   0  0  0  0  0  4  0  0  0  0  0  0
    3.6374    2.1153    2.1515 H   0  0  0  0  0  0  0  0  0  0  0  0
    2.1755    1.1387    3.9079 H   0  0  0  0  0  0  0  0  0  0  0  0
    0.4419   -0.4375    3.2686 H   0  0  0  0  0  0  0  0  0  0  0  0
    0.8406   -0.9138   -1.4411 H   0  0  0  0  0  0  0  0  0  0  0  0
    2.2833    0.0470   -3.1008 H   0  0  0  0  0  0  0  0  0  0  0  0
    4.0271    1.6392   -2.4836 H   0  0  0  0  0  0  0  0  0  0  0  0
    4.2548    2.2637   -0.1073 H   0  0  0  0  0  0  0  0  0  0  0  0
   -0.3699   -2.0165    1.7230 H   0  0  0  0  0  0  0  0  0  0  0  0
    0.1419   -2.0108    0.0491 H   0  0  0  0  0  0  0  0  0  0  0  0
   -2.1284   -0.2944    1.2708 H   0  0  0  0  0  0  0  0  0  0  0  0
   -1.1940    2.7303   -1.8527 H   0  0  0  0  0  0  0  0  0  0  0  0
   -2.3237    1.5827   -2.6852 H   0  0  0  0  0  0  0  0  0  0  0  0
   -3.0035    2.9932   -1.7984 H   0  0  0  0  0  0  0  0  0  0  0  0
   -1.2868   -0.2262   -1.6020 H   0  0  0  0  0  0  0  0  0  0  0  0
   -1.9653   -3.7244   -1.0270 H   0  0  0  0  0  0  0  0  0  0  0  0
   -4.0874   -2.3565   -1.0772 H   0  0  0  0  0  0  0  0  0  0  0  0
   -2.3956   -2.4036    2.0409 H   0  0  0  0  0  0  0  0  0  0  0  0
  1  2  2  0
  1  6  1  0
  1 11  1  0
  2  3  1  0
  2  7  1  0
  3  4  2  0
  3 10  1  0
  4  5  1  0
  5  6  2  0
  7  8  2  0
  8  9  1  0
  9 10  2  0
 11 12  1  0
 12 15  1  0
 12 20  1  0
 13 14  1  0
 14 15  1  0
 14 16  2  0
 17 20  1  0
 18 20  1  0
 19 20  1  0
  4 21  1  0
  5 22  1  0
  6 23  1  0
  7 24  1  0
  8 25  1  0
  9 26  1  0
 10 27  1  0
 11 28  1  0
 11 29  1  0
 12 30  1  1
 13 31  1  0
 13 32  1  0
 13 33  1  0
 15 34  1  0
 17 35  1  0
 18 36  1  0
 19 37  1  0
M  CHG  1  20  -1
M  END

