99443258
     RDKit          3D

 29 28  0  0  1  0  0  0  0  0999 V2000
   -2.4296   -0.9774   -0.5424 C   0  0  0  0  0  0  0  0  0  0  0  0
   -1.7993    0.2297    0.0509 C   0  0  0  0  0  0  0  0  0  0  0  0
   -0.5298    0.0220    0.7943 C   0  0  0  0  0  0  0  0  0  0  0  0
    0.5080   -0.5558   -0.1055 C   0  0  0  0  0  0  0  0  0  0  0  0
    1.8091   -0.7835    0.5766 C   0  0  0  0  0  0  0  0  0  0  0  0
    2.9413   -0.2354    0.2259 C   0  0  0  0  0  0  0  0  0  0  0  0
    4.1743   -0.5359    0.9796 C   0  0  0  0  0  0  0  0  0  0  0  0
    2.9975    0.6868   -0.9255 C   0  0  0  0  0  0  0  0  0  0  0  0
   -2.8275    0.8693    0.8866 N   0  0  0  0  0  0  0  0  0  0  0  0
   -3.8991    1.2555   -0.0114 C   0  0  0  0  0  0  0  0  0  0  0  0
   -3.0449   -0.6385   -1.4245 H   0  0  0  0  0  0  0  0  0  0  0  0
   -1.7731   -1.7735   -0.8815 H   0  0  0  0  0  0  0  0  0  0  0  0
   -3.1683   -1.4665    0.1612 H   0  0  0  0  0  0  0  0  0  0  0  0
   -1.5872    0.9990   -0.7493 H   0  0  0  0  0  0  0  0  0  0  0  0
   -0.1520    1.0304    1.1222 H   0  0  0  0  0  0  0  0  0  0  0  0
   -0.6364   -0.5913    1.7103 H   0  0  0  0  0  0  0  0  0  0  0  0
    0.7034    0.1326   -0.9541 H   0  0  0  0  0  0  0  0  0  0  0  0
    0.1783   -1.5693   -0.4552 H   0  0  0  0  0  0  0  0  0  0  0  0
    1.7801   -1.4587    1.4217 H   0  0  0  0  0  0  0  0  0  0  0  0
    3.9695   -1.0558    1.9371 H   0  0  0  0  0  0  0  0  0  0  0  0
    4.7450    0.3943    1.1865 H   0  0  0  0  0  0  0  0  0  0  0  0
    4.8274   -1.1445    0.3026 H   0  0  0  0  0  0  0  0  0  0  0  0
    3.9674    1.2191   -1.0080 H   0  0  0  0  0  0  0  0  0  0  0  0
    2.2225    1.4878   -0.8884 H   0  0  0  0  0  0  0  0  0  0  0  0
    2.8635    0.1482   -1.9057 H   0  0  0  0  0  0  0  0  0  0  0  0
   -3.2289    0.1310    1.5183 H   0  0  0  0  0  0  0  0  0  0  0  0
   -4.6824    0.4885   -0.0976 H   0  0  0  0  0  0  0  0  0  0  0  0
   -4.4182    2.1844    0.3593 H   0  0  0  0  0  0  0  0  0  0  0  0
   -3.5105    1.5076   -1.0241 H   0  0  0  0  0  0  0  0  0  0  0  0
  1  2  1  0
  2  3  1  0
  3  4  1  0
  4  5  1  0
  5  6  2  3
  6  7  1  0
  6  8  1  0
  2  9  1  0
  9 10  1  0
  1 11  1  0
  1 12  1  0
  1 13  1  0
  2 14  1  0
  3 15  1  0
  3 16  1  0
  4 17  1  0
  4 18  1  0
  5 19  1  0
  7 20  1  0
  7 21  1  0
  7 22  1  0
  8 23  1  0
  8 24  1  0
  8 25  1  0
  9 26  1  0
 10 27  1  0
 10 28  1  0
 10 29  1  0
M  END

