99444193
     RDKit          3D

 25 25  0  0  0  0  0  0  0  0999 V2000
    2.8213    1.4350    2.3199 C   0  0  0  0  0  0  0  0  0  0  0  0
    4.1435    1.5841    2.7132 O   0  0  0  0  0  0  0  0  0  0  0  0
    2.7025    0.6041    1.0583 C   0  0  0  0  0  0  0  0  0  0  0  0
    1.2477    0.4707    0.6713 C   0  0  0  0  0  0  0  0  0  0  0  0
    1.0737   -0.2955   -0.5001 O   0  0  0  0  0  0  0  0  0  0  0  0
   -1.7299   -1.4369   -2.5723 C   0  0  0  0  0  0  0  0  0  0  0  0
   -2.7944   -0.8847   -1.8808 C   0  0  0  0  0  0  0  0  0  0  0  0
   -4.1318   -1.0676   -2.3269 N   0  0  0  0  0  4  0  0  0  0  0  0
   -5.1708   -0.5283   -1.6514 O   0  0  0  0  0  1  0  0  0  0  0  0
   -4.3815   -1.7336   -3.3579 O   0  0  0  0  0  0  0  0  0  0  0  0
   -2.5546   -0.1499   -0.7479 C   0  0  0  0  0  0  0  0  0  0  0  0
   -1.2723    0.0541   -0.2772 C   0  0  0  0  0  0  0  0  0  0  0  0
   -0.2100   -0.4890   -0.9554 C   0  0  0  0  0  0  0  0  0  0  0  0
   -0.4443   -1.2271   -2.0924 C   0  0  0  0  0  0  0  0  0  0  0  0
    2.3280    2.4150    2.1227 H   0  0  0  0  0  0  0  0  0  0  0  0
    2.2203    0.9466    3.1174 H   0  0  0  0  0  0  0  0  0  0  0  0
    4.4593    0.8836    3.3130 H   0  0  0  0  0  0  0  0  0  0  0  0
    3.2128    1.1056    0.2090 H   0  0  0  0  0  0  0  0  0  0  0  0
    3.1024   -0.4139    1.1967 H   0  0  0  0  0  0  0  0  0  0  0  0
    0.6409   -0.0164    1.4624 H   0  0  0  0  0  0  0  0  0  0  0  0
    0.7993    1.4767    0.4560 H   0  0  0  0  0  0  0  0  0  0  0  0
   -1.9363   -2.0133   -3.4633 H   0  0  0  0  0  0  0  0  0  0  0  0
   -3.4006    0.2907   -0.1958 H   0  0  0  0  0  0  0  0  0  0  0  0
   -1.1203    0.6540    0.6421 H   0  0  0  0  0  0  0  0  0  0  0  0
    0.3951   -1.6641   -2.6400 H   0  0  0  0  0  0  0  0  0  0  0  0
  1  2  1  0
  1  3  1  0
  3  4  1  0
  4  5  1  0
  5 13  1  0
  6  7  2  0
  6 14  1  0
  7  8  1  0
  7 11  1  0
  8  9  1  0
  8 10  2  0
 11 12  2  0
 12 13  1  0
 13 14  2  0
  1 15  1  0
  1 16  1  0
  2 17  1  0
  3 18  1  0
  3 19  1  0
  4 20  1  0
  4 21  1  0
  6 22  1  0
 11 23  1  0
 12 24  1  0
 14 25  1  0
M  CHG  2   8   1   9  -1
M  END

