99445039
     RDKit          3D

 49 52  0  0  1  0  0  0  0  0999 V2000
   -5.1202    3.2087   -1.2119 C   0  0  0  0  0  0  0  0  0  0  0  0
   -5.7645    2.0321   -0.5953 C   0  0  0  0  0  0  0  0  0  0  0  0
   -5.1438    0.8214   -0.3412 C   0  0  0  0  0  0  0  0  0  0  0  0
   -6.1485    0.0379    0.2398 C   0  0  0  0  0  0  0  0  0  0  0  0
   -7.2746    0.7406    0.3189 N   0  0  0  0  0  0  0  0  0  0  0  0
   -7.0551    1.9364   -0.1786 N   0  0  0  0  0  0  0  0  0  0  0  0
   -5.8847   -1.2460    0.6260 C   0  0  0  0  0  0  0  0  0  0  0  0
   -4.6097   -1.7407    0.4274 C   0  0  0  0  0  0  0  0  0  0  0  0
   -3.6194   -0.9786   -0.1416 C   0  0  0  0  0  0  0  0  0  0  0  0
   -3.8802    0.2940   -0.5246 C   0  0  0  0  0  0  0  0  0  0  0  0
   -2.2970   -1.5751   -0.3199 C   0  0  0  0  0  0  0  0  0  0  0  0
   -1.1474   -0.8628   -0.2707 C   0  0  0  0  0  0  0  0  0  0  0  0
    0.1046   -1.4715   -0.4489 C   0  0  0  0  0  0  0  0  0  0  0  0
    0.1378   -2.8331   -0.6797 C   0  0  0  0  0  0  0  0  0  0  0  0
   -1.0031   -3.5337   -0.7271 N   0  0  0  0  0  0  0  0  0  0  0  0
   -2.1812   -2.9341   -0.5545 C   0  0  0  0  0  0  0  0  0  0  0  0
    1.2003   -0.7129   -0.3912 O   0  0  0  0  0  0  0  0  0  0  0  0
    2.5131   -0.5820   -0.4343 C   0  0  0  0  0  0  0  0  0  0  0  0
    3.3798   -1.2418    0.6146 C   0  0  1  0  0  0  0  0  0  0  0  0
    3.1869   -2.6619    0.5804 N   0  0  0  0  0  0  0  0  0  0  0  0
    4.8093   -0.8613    0.3522 C   0  0  0  0  0  0  0  0  0  0  0  0
    5.1218    0.5535    0.3905 C   0  0  0  0  0  0  0  0  0  0  0  0
    5.0499    1.2843   -0.7816 C   0  0  0  0  0  0  0  0  0  0  0  0
    5.3344    2.6295   -0.8097 C   0  0  0  0  0  0  0  0  0  0  0  0
    5.7022    3.2927    0.3381 C   0  0  0  0  0  0  0  0  0  0  0  0
    5.7841    2.6047    1.5135 C   0  0  0  0  0  0  0  0  0  0  0  0
    5.4962    1.2625    1.5212 C   0  0  0  0  0  0  0  0  0  0  0  0
   -4.7225    3.8306   -0.3759 H   0  0  0  0  0  0  0  0  0  0  0  0
   -5.8963    3.7931   -1.7789 H   0  0  0  0  0  0  0  0  0  0  0  0
   -4.3280    2.9010   -1.9168 H   0  0  0  0  0  0  0  0  0  0  0  0
   -8.1802    0.4143    0.7050 H   0  0  0  0  0  0  0  0  0  0  0  0
   -6.6247   -1.8809    1.0749 H   0  0  0  0  0  0  0  0  0  0  0  0
   -4.4327   -2.7779    0.7515 H   0  0  0  0  0  0  0  0  0  0  0  0
   -3.1413    0.9464   -0.9794 H   0  0  0  0  0  0  0  0  0  0  0  0
   -1.1826    0.2016   -0.0904 H   0  0  0  0  0  0  0  0  0  0  0  0
    1.0842   -3.3502   -0.8434 H   0  0  0  0  0  0  0  0  0  0  0  0
   -3.1119   -3.5218   -0.5972 H   0  0  0  0  0  0  0  0  0  0  0  0
    2.9759   -0.8229   -1.4644 H   0  0  0  0  0  0  0  0  0  0  0  0
    2.7767    0.5337   -0.3331 H   0  0  0  0  0  0  0  0  0  0  0  0
    3.0261   -0.9079    1.6129 H   0  0  0  0  0  0  0  0  0  0  0  0
    3.7512   -3.1522   -0.1235 H   0  0  0  0  0  0  0  0  0  0  0  0
    3.1397   -3.1096    1.5006 H   0  0  0  0  0  0  0  0  0  0  0  0
    5.1551   -1.3002   -0.5980 H   0  0  0  0  0  0  0  0  0  0  0  0
    5.4300   -1.3665    1.1495 H   0  0  0  0  0  0  0  0  0  0  0  0
    4.7652    0.8160   -1.7191 H   0  0  0  0  0  0  0  0  0  0  0  0
    5.2782    3.1956   -1.7201 H   0  0  0  0  0  0  0  0  0  0  0  0
    5.9268    4.3421    0.3299 H   0  0  0  0  0  0  0  0  0  0  0  0
    6.0654    3.0519    2.4564 H   0  0  0  0  0  0  0  0  0  0  0  0
    5.5545    0.7011    2.4368 H   0  0  0  0  0  0  0  0  0  0  0  0
  1  2  1  0
  2  3  1  0
  3  4  2  0
  4  5  1  0
  2  6  2  0
  5  6  1  0
  4  7  1  0
  7  8  2  0
  8  9  1  0
  9 10  2  0
  3 10  1  0
  9 11  1  0
 11 12  2  0
 12 13  1  0
 13 14  2  0
 14 15  1  0
 11 16  1  0
 15 16  2  0
 13 17  1  0
 17 18  1  0
 18 19  1  0
 19 20  1  0
 19 21  1  0
 21 22  1  0
 22 23  2  0
 23 24  1  0
 24 25  2  0
 25 26  1  0
 22 27  1  0
 26 27  2  0
  1 28  1  0
  1 29  1  0
  1 30  1  0
  5 31  1  0
  7 32  1  0
  8 33  1  0
 10 34  1  0
 12 35  1  0
 14 36  1  0
 16 37  1  0
 18 38  1  0
 18 39  1  0
 19 40  1  1
 20 41  1  0
 20 42  1  0
 21 43  1  0
 21 44  1  0
 23 45  1  0
 24 46  1  0
 25 47  1  0
 26 48  1  0
 27 49  1  0
M  END

