99444460
     RDKit          3D

 31 30  0  0  1  0  0  0  0  0999 V2000
   -3.2845   -2.2936    0.1313 C   0  0  0  0  0  0  0  0  0  0  0  0
   -2.1176   -1.6447   -0.4998 C   0  0  0  0  0  0  0  0  0  0  0  0
   -1.7885   -1.8901   -1.6742 O   0  0  0  0  0  0  0  0  0  0  0  0
   -1.3603   -0.7258    0.2480 N   0  0  0  0  0  0  0  0  0  0  0  0
   -1.6977   -0.4424    1.5261 O   0  0  0  0  0  0  0  0  0  0  0  0
   -0.1857   -0.0472   -0.3283 C   0  0  2  0  0  0  0  0  0  0  0  0
    0.9823   -0.5196    0.4604 C   0  0  0  0  0  0  0  0  0  0  0  0
    2.3035    0.0526    0.0380 C   0  0  0  0  0  0  0  0  0  0  0  0
    2.5930   -0.3041   -1.4053 C   0  0  0  0  0  0  0  0  0  0  0  0
    3.4415   -0.5258    0.8886 C   0  0  0  0  0  0  0  0  0  0  0  0
   -0.3907    1.4072   -0.3566 C   0  0  0  0  0  0  0  0  0  0  0  0
    0.4824    2.1753   -0.8295 O   0  0  0  0  0  0  0  0  0  0  0  0
   -1.5494    1.9893    0.1346 O   0  0  0  0  0  0  0  0  0  0  0  0
   -1.7851    3.3847    0.1256 C   0  0  0  0  0  0  0  0  0  0  0  0
   -4.0713   -1.5118    0.2365 H   0  0  0  0  0  0  0  0  0  0  0  0
   -3.6494   -3.1078   -0.4960 H   0  0  0  0  0  0  0  0  0  0  0  0
   -2.9960   -2.6812    1.1309 H   0  0  0  0  0  0  0  0  0  0  0  0
   -2.5819   -0.0329    1.6139 H   0  0  0  0  0  0  0  0  0  0  0  0
   -0.0888   -0.4185   -1.3696 H   0  0  0  0  0  0  0  0  0  0  0  0
    1.0376   -1.6244    0.3437 H   0  0  0  0  0  0  0  0  0  0  0  0
    0.8399   -0.3529    1.5598 H   0  0  0  0  0  0  0  0  0  0  0  0
    2.2875    1.1381    0.2013 H   0  0  0  0  0  0  0  0  0  0  0  0
    3.5776   -0.8028   -1.5271 H   0  0  0  0  0  0  0  0  0  0  0  0
    1.8196   -0.9971   -1.8110 H   0  0  0  0  0  0  0  0  0  0  0  0
    2.6129    0.5966   -2.0412 H   0  0  0  0  0  0  0  0  0  0  0  0
    3.0512   -1.1767    1.6912 H   0  0  0  0  0  0  0  0  0  0  0  0
    4.1255   -1.1396    0.2714 H   0  0  0  0  0  0  0  0  0  0  0  0
    4.0668    0.3030    1.3125 H   0  0  0  0  0  0  0  0  0  0  0  0
   -2.0005    3.6895    1.1763 H   0  0  0  0  0  0  0  0  0  0  0  0
   -2.7312    3.5554   -0.4430 H   0  0  0  0  0  0  0  0  0  0  0  0
   -0.9427    3.9477   -0.3088 H   0  0  0  0  0  0  0  0  0  0  0  0
  1  2  1  0
  2  3  2  0
  2  4  1  0
  4  5  1  0
  6  4  1  0
  6  7  1  0
  6 11  1  0
  7  8  1  0
  8  9  1  0
  8 10  1  0
 11 12  2  0
 11 13  1  0
 13 14  1  0
  1 15  1  0
  1 16  1  0
  1 17  1  0
  5 18  1  0
  6 19  1  6
  7 20  1  0
  7 21  1  0
  8 22  1  0
  9 23  1  0
  9 24  1  0
  9 25  1  0
 10 26  1  0
 10 27  1  0
 10 28  1  0
 14 29  1  0
 14 30  1  0
 14 31  1  0
M  END

