99443873
     RDKit          3D

 40 42  0  0  1  0  0  0  0  0999 V2000
    0.9025   -1.3999   -1.0145 C   0  0  0  0  0  0  0  0  0  0  0  0
    1.6423   -0.4714   -1.8809 C   0  0  1  0  0  0  0  0  0  0  0  0
    1.5555    0.8114   -1.1344 C   0  0  0  0  0  0  0  0  0  0  0  0
    0.3382    0.7332   -0.3783 N   0  0  0  0  0  0  0  0  0  0  0  0
   -0.4570    1.7143    0.2515 C   0  0  0  0  0  0  0  0  0  0  0  0
   -1.5397    1.4743    0.9014 N   0  0  0  0  0  0  0  0  0  0  0  0
   -1.9788    0.1395    1.0020 C   0  0  0  0  0  0  0  0  0  0  0  0
   -3.1484   -0.1133    1.7050 C   0  0  0  0  0  0  0  0  0  0  0  0
   -3.5524   -1.4385    1.7848 C   0  0  0  0  0  0  0  0  0  0  0  0
   -2.8303   -2.4561    1.1963 C   0  0  0  0  0  0  0  0  0  0  0  0
   -1.6703   -2.1859    0.5016 C   0  0  0  0  0  0  0  0  0  0  0  0
   -1.2492   -0.8895    0.4073 C   0  0  0  0  0  0  0  0  0  0  0  0
   -0.0514   -0.6141   -0.3105 N   0  0  0  0  0  0  0  0  0  0  0  0
    1.0277   -2.6449   -0.8690 O   0  0  0  0  0  0  0  0  0  0  0  0
    3.0295   -0.8825   -2.2268 C   0  0  0  0  0  0  0  0  0  0  0  0
    3.9630   -1.0712   -1.1329 C   0  0  0  0  0  0  0  0  0  0  0  0
    3.6554   -0.9119    0.1292 C   0  0  0  0  0  0  0  0  0  0  0  0
    2.3796    1.7561   -1.1667 O   0  0  0  0  0  0  0  0  0  0  0  0
   -0.0433    3.0752    0.1703 N   0  0  0  0  0  0  0  0  0  0  0  0
   -0.1988    3.7594   -1.0937 C   0  0  0  0  0  0  0  0  0  0  0  0
    0.5096    3.7383    1.3122 C   0  0  0  0  0  0  0  0  0  0  0  0
   -3.3037   -3.8602    1.3094 C   0  0  0  0  0  0  0  0  0  0  0  0
    1.0074   -0.3391   -2.7996 H   0  0  0  0  0  0  0  0  0  0  0  0
   -3.7287    0.6652    2.1729 H   0  0  0  0  0  0  0  0  0  0  0  0
   -4.4575   -1.6922    2.3212 H   0  0  0  0  0  0  0  0  0  0  0  0
   -1.1000   -2.9834    0.0376 H   0  0  0  0  0  0  0  0  0  0  0  0
    3.4047   -0.1070   -2.9637 H   0  0  0  0  0  0  0  0  0  0  0  0
    2.9375   -1.8014   -2.8856 H   0  0  0  0  0  0  0  0  0  0  0  0
    4.9947   -1.3677   -1.3936 H   0  0  0  0  0  0  0  0  0  0  0  0
    4.4134   -1.0716    0.9078 H   0  0  0  0  0  0  0  0  0  0  0  0
    2.6752   -0.6265    0.4628 H   0  0  0  0  0  0  0  0  0  0  0  0
   -0.3454    3.0581   -1.9242 H   0  0  0  0  0  0  0  0  0  0  0  0
    0.6761    4.3862   -1.3128 H   0  0  0  0  0  0  0  0  0  0  0  0
   -1.1245    4.3934   -1.0544 H   0  0  0  0  0  0  0  0  0  0  0  0
   -0.2448    4.4551    1.7411 H   0  0  0  0  0  0  0  0  0  0  0  0
    1.4448    4.2930    1.1003 H   0  0  0  0  0  0  0  0  0  0  0  0
    0.7503    3.0115    2.1133 H   0  0  0  0  0  0  0  0  0  0  0  0
   -4.3025   -3.9154    0.8127 H   0  0  0  0  0  0  0  0  0  0  0  0
   -2.5965   -4.5422    0.8077 H   0  0  0  0  0  0  0  0  0  0  0  0
   -3.3842   -4.0784    2.3934 H   0  0  0  0  0  0  0  0  0  0  0  0
  1  2  1  0
  1 13  1  0
  1 14  2  0
  2  3  1  0
  2 15  1  0
  3  4  1  0
  3 18  2  0
  4  5  1  0
  4 13  1  0
  5  6  2  0
  5 19  1  0
  6  7  1  0
  7  8  2  0
  7 12  1  0
  8  9  1  0
  9 10  2  0
 10 11  1  0
 10 22  1  0
 11 12  2  0
 12 13  1  0
 15 16  1  0
 16 17  2  3
 19 20  1  0
 19 21  1  0
  2 23  1  6
  8 24  1  0
  9 25  1  0
 11 26  1  0
 15 27  1  0
 15 28  1  0
 16 29  1  0
 17 30  1  0
 17 31  1  0
 20 32  1  0
 20 33  1  0
 20 34  1  0
 21 35  1  0
 21 36  1  0
 21 37  1  0
 22 38  1  0
 22 39  1  0
 22 40  1  0
M  END

