99443231
     RDKit          3D

 35 36  0  0  0  0  0  0  0  0999 V2000
    1.5750   -1.2711   -1.3520 O   0  0  0  0  0  0  0  0  0  0  0  0
   -1.1751    1.9634   -0.7095 N   0  0  0  0  0  0  0  0  0  0  0  0
   -1.9828    0.9391   -0.5870 N   0  0  0  0  0  0  0  0  0  0  0  0
    0.0749    0.1751   -0.3304 C   0  0  0  0  0  0  0  0  0  0  0  0
   -1.7440   -1.5356    0.0285 C   0  0  0  0  0  0  0  0  0  0  0  0
   -1.2669   -0.1814   -0.3481 C   0  0  0  0  0  0  0  0  0  0  0  0
    0.0995    1.5169   -0.5547 C   0  0  0  0  0  0  0  0  0  0  0  0
    1.8397   -1.2871    0.9514 C   0  0  0  0  0  0  0  0  0  0  0  0
    1.1517   -0.7843   -0.2194 C   0  0  0  0  0  0  0  0  0  0  0  0
   -2.3935   -2.2420   -1.1706 C   0  0  0  0  0  0  0  0  0  0  0  0
   -2.9977   -1.2396    0.9934 C   0  0  0  0  0  0  0  0  0  0  0  0
    1.1436    2.4229   -0.6565 C   0  0  0  0  0  0  0  0  0  0  0  0
    2.6551   -0.1763    1.6725 C   0  0  0  0  0  0  0  0  0  0  0  0
    2.7899   -2.3962    0.5914 C   0  0  0  0  0  0  0  0  0  0  0  0
   -1.4153    3.2617   -0.9447 C   0  0  0  0  0  0  0  0  0  0  0  0
    0.8934    3.7745   -0.9107 C   0  0  0  0  0  0  0  0  0  0  0  0
   -0.3978    4.2026   -1.0567 C   0  0  0  0  0  0  0  0  0  0  0  0
   -1.0659   -2.0908    0.6410 H   0  0  0  0  0  0  0  0  0  0  0  0
    1.1216   -1.7194    1.7266 H   0  0  0  0  0  0  0  0  0  0  0  0
   -2.1122   -1.6690   -2.0951 H   0  0  0  0  0  0  0  0  0  0  0  0
   -1.9802   -3.2852   -1.1993 H   0  0  0  0  0  0  0  0  0  0  0  0
   -3.4907   -2.2957   -1.1160 H   0  0  0  0  0  0  0  0  0  0  0  0
   -2.7578   -0.2433    1.4342 H   0  0  0  0  0  0  0  0  0  0  0  0
   -3.8956   -1.1990    0.3468 H   0  0  0  0  0  0  0  0  0  0  0  0
   -3.0209   -2.0224    1.7596 H   0  0  0  0  0  0  0  0  0  0  0  0
    2.1562    2.0555   -0.5497 H   0  0  0  0  0  0  0  0  0  0  0  0
    1.9120    0.5355    2.0354 H   0  0  0  0  0  0  0  0  0  0  0  0
    3.4044    0.2352    1.0258 H   0  0  0  0  0  0  0  0  0  0  0  0
    3.1474   -0.6974    2.5575 H   0  0  0  0  0  0  0  0  0  0  0  0
    2.2352   -3.0901   -0.1261 H   0  0  0  0  0  0  0  0  0  0  0  0
    3.6478   -1.9826   -0.0278 H   0  0  0  0  0  0  0  0  0  0  0  0
    3.1513   -2.9528    1.4606 H   0  0  0  0  0  0  0  0  0  0  0  0
   -2.4394    3.6185   -1.0521 H   0  0  0  0  0  0  0  0  0  0  0  0
    1.7330    4.4347   -0.9786 H   0  0  0  0  0  0  0  0  0  0  0  0
   -0.5957    5.2256   -1.2394 H   0  0  0  0  0  0  0  0  0  0  0  0
  1  9  2  0
  2  3  1  0
  2  7  1  0
  2 15  1  0
  3  6  2  0
  4  6  1  0
  4  7  2  0
  4  9  1  0
  5  6  1  0
  5 10  1  0
  5 11  1  0
  7 12  1  0
  8  9  1  0
  8 13  1  0
  8 14  1  0
 12 16  2  0
 15 17  2  0
 16 17  1  0
  5 18  1  0
  8 19  1  0
 10 20  1  0
 10 21  1  0
 10 22  1  0
 11 23  1  0
 11 24  1  0
 11 25  1  0
 12 26  1  0
 13 27  1  0
 13 28  1  0
 13 29  1  0
 14 30  1  0
 14 31  1  0
 14 32  1  0
 15 33  1  0
 16 34  1  0
 17 35  1  0
M  END

