99444860
     RDKit          3D

 53 57  0  0  1  0  0  0  0  0999 V2000
    5.4680   -0.9292   -0.4156 C   0  0  0  0  0  0  0  0  0  0  0  0
    2.0519   -2.0876    0.0927 C   0  0  0  0  0  0  0  0  0  0  0  0
    3.1607   -1.2842    0.0035 C   0  0  0  0  0  0  0  0  0  0  0  0
    3.4926   -3.8894   -0.5043 C   0  0  0  0  0  0  0  0  0  0  0  0
   -3.3119   -0.1126    0.4261 C   0  0  0  0  0  0  0  0  0  0  0  0
   -0.7227   -1.7099    2.1548 C   0  0  0  0  0  0  0  0  0  0  0  0
   -0.4691   -2.1257   -0.1379 C   0  0  0  0  0  0  0  0  0  0  0  0
    0.4016   -0.8253    1.5519 C   0  0  0  0  0  0  0  0  0  0  0  0
   -5.8900    0.8130    0.0315 C   0  0  0  0  0  0  0  0  0  0  0  0
    2.6346    2.7770    0.7479 C   0  0  0  0  0  0  0  0  0  0  0  0
    3.9187    2.2956    0.4087 O   0  0  0  0  0  0  0  0  0  0  0  0
    4.0977    0.9369    0.1588 C   0  0  0  0  0  0  0  0  0  0  0  0
    5.3175    0.4283   -0.1714 C   0  0  0  0  0  0  0  0  0  0  0  0
    6.3949    1.2887   -0.2574 O   0  0  0  0  0  0  0  0  0  0  0  0
    7.6659    0.7690   -0.5998 C   0  0  0  0  0  0  0  0  0  0  0  0
    3.0183    0.0805    0.2460 C   0  0  0  0  0  0  0  0  0  0  0  0
    4.4060   -1.7812   -0.3311 C   0  0  0  0  0  0  0  0  0  0  0  0
    4.5585   -3.0721   -0.5804 N   0  0  0  0  0  0  0  0  0  0  0  0
    2.2800   -3.4206   -0.1799 N   0  0  0  0  0  0  0  0  0  0  0  0
    0.7698   -1.6833    0.4718 N   0  0  0  0  0  0  0  0  0  0  0  0
   -1.5688   -1.8099    0.8762 C   0  0  2  0  0  0  0  0  0  0  0  0
   -2.0357   -0.5267    0.6139 O   0  0  0  0  0  0  0  0  0  0  0  0
   -4.3568   -0.9949    0.4812 C   0  0  0  0  0  0  0  0  0  0  0  0
   -5.6511   -0.5245    0.2820 C   0  0  0  0  0  0  0  0  0  0  0  0
   -7.1553    1.3174   -0.1708 C   0  0  0  0  0  0  0  0  0  0  0  0
   -4.8362    1.7163   -0.0263 C   0  0  0  0  0  0  0  0  0  0  0  0
   -3.5697    1.2112    0.1761 C   0  0  0  0  0  0  0  0  0  0  0  0
   -5.0385    3.0534   -0.2735 C   0  0  0  0  0  0  0  0  0  0  0  0
   -6.3110    3.5502   -0.4751 C   0  0  0  0  0  0  0  0  0  0  0  0
   -7.3585    2.6649   -0.4198 C   0  0  0  0  0  0  0  0  0  0  0  0
    6.4332   -1.3043   -0.6730 H   0  0  0  0  0  0  0  0  0  0  0  0
    3.6772   -4.9428   -0.7207 H   0  0  0  0  0  0  0  0  0  0  0  0
   -0.3075   -2.6933    2.3949 H   0  0  0  0  0  0  0  0  0  0  0  0
   -1.2420   -1.1969    2.9578 H   0  0  0  0  0  0  0  0  0  0  0  0
   -0.6174   -1.4884   -1.0537 H   0  0  0  0  0  0  0  0  0  0  0  0
   -0.4614   -3.1678   -0.4432 H   0  0  0  0  0  0  0  0  0  0  0  0
    1.1827   -0.6605    2.3189 H   0  0  0  0  0  0  0  0  0  0  0  0
   -0.1224    0.0928    1.2229 H   0  0  0  0  0  0  0  0  0  0  0  0
    2.6903    3.8948    0.7920 H   0  0  0  0  0  0  0  0  0  0  0  0
    2.3010    2.3664    1.7225 H   0  0  0  0  0  0  0  0  0  0  0  0
    1.8670    2.4687   -0.0045 H   0  0  0  0  0  0  0  0  0  0  0  0
    8.4479    1.5526   -0.5861 H   0  0  0  0  0  0  0  0  0  0  0  0
    7.9976    0.0103    0.1613 H   0  0  0  0  0  0  0  0  0  0  0  0
    7.6545    0.2442   -1.5849 H   0  0  0  0  0  0  0  0  0  0  0  0
    2.0638    0.4981    0.4888 H   0  0  0  0  0  0  0  0  0  0  0  0
   -2.3117   -2.5948    0.9423 H   0  0  0  0  0  0  0  0  0  0  0  0
   -4.2558   -2.0463    0.6702 H   0  0  0  0  0  0  0  0  0  0  0  0
   -6.5145   -1.1763    0.3143 H   0  0  0  0  0  0  0  0  0  0  0  0
   -8.0076    0.6344   -0.1322 H   0  0  0  0  0  0  0  0  0  0  0  0
   -2.7583    1.9541    0.1235 H   0  0  0  0  0  0  0  0  0  0  0  0
   -4.2232    3.7574   -0.3191 H   0  0  0  0  0  0  0  0  0  0  0  0
   -6.4999    4.6034   -0.6725 H   0  0  0  0  0  0  0  0  0  0  0  0
   -8.3549    3.0692   -0.5803 H   0  0  0  0  0  0  0  0  0  0  0  0
  1 13  2  0
  1 17  1  0
  2  3  1  0
  2 20  1  0
  2 19  2  0
  3 16  1  0
  3 17  2  0
  4 18  2  0
  4 19  1  0
  5 27  1  0
  5 23  2  0
  5 22  1  0
  6 21  1  0
  6  8  1  0
  7 21  1  0
  7 20  1  0
  8 20  1  0
  9 25  1  0
  9 26  1  0
  9 24  2  0
 10 11  1  0
 11 12  1  0
 12 13  1  0
 12 16  2  0
 13 14  1  0
 14 15  1  0
 17 18  1  0
 21 22  1  0
 23 24  1  0
 25 30  2  0
 26 28  1  0
 26 27  2  0
 28 29  2  0
 29 30  1  0
  1 31  1  0
  4 32  1  0
  6 33  1  0
  6 34  1  0
  7 35  1  0
  7 36  1  0
  8 37  1  0
  8 38  1  0
 10 39  1  0
 10 40  1  0
 10 41  1  0
 15 42  1  0
 15 43  1  0
 15 44  1  0
 16 45  1  0
 21 46  1  1
 23 47  1  0
 24 48  1  0
 25 49  1  0
 27 50  1  0
 28 51  1  0
 29 52  1  0
 30 53  1  0
M  END

