99445220
     RDKit          3D

 61 64  0  0  0  0  0  0  0  0999 V2000
   -4.2511    2.9869   -0.7486 C   0  0  0  0  0  0  0  0  0  0  0  0
   -4.3654    1.5985   -0.3901 N   0  0  0  0  0  0  0  0  0  0  0  0
   -3.2500    0.7611   -0.4232 C   0  0  0  0  0  0  0  0  0  0  0  0
   -3.3754   -0.4474   -0.1126 O   0  0  0  0  0  0  0  0  0  0  0  0
   -1.8581    1.1929   -0.8114 C   0  0  0  0  0  0  0  0  0  0  0  0
   -0.9227    0.0867   -0.6343 C   0  0  0  0  0  0  0  0  0  0  0  0
    0.4660    0.2987   -0.9460 N   0  0  0  0  0  0  0  0  0  0  0  0
    1.3023   -0.8550   -0.6363 C   0  0  0  0  0  0  0  0  0  0  0  0
    2.7423   -0.5844   -0.5923 C   0  0  0  0  0  0  0  0  0  0  0  0
    3.6323   -1.5307   -0.0901 C   0  0  0  0  0  0  0  0  0  0  0  0
    4.9982   -1.3692   -0.0789 C   0  0  0  0  0  0  0  0  0  0  0  0
    5.8684   -2.4079    0.4456 C   0  0  0  0  0  0  0  0  0  0  0  0
    5.5660   -3.6410    0.3962 O   0  0  0  0  0  0  0  0  0  0  0  0
    7.1424   -2.0862    1.0597 C   0  0  0  0  0  0  0  0  0  0  0  0
    7.3619   -0.8499    1.6310 C   0  0  0  0  0  0  0  0  0  0  0  0
    8.5719   -0.5017    2.2085 C   0  0  0  0  0  0  0  0  0  0  0  0
    9.5998   -1.4023    2.2247 C   0  0  0  0  0  0  0  0  0  0  0  0
    9.3918   -2.6244    1.6643 C   0  0  0  0  0  0  0  0  0  0  0  0
    8.1953   -2.9793    1.0882 C   0  0  0  0  0  0  0  0  0  0  0  0
    5.4650   -0.1839   -0.6076 C   0  0  0  0  0  0  0  0  0  0  0  0
    4.5982    0.7811   -1.1150 C   0  0  0  0  0  0  0  0  0  0  0  0
    3.2206    0.5962   -1.1138 C   0  0  0  0  0  0  0  0  0  0  0  0
    2.3266    1.6030   -1.5581 N   0  0  0  0  0  0  0  0  0  0  0  0
    1.0266    1.4778   -1.4903 C   0  0  0  0  0  0  0  0  0  0  0  0
    0.1714    2.4965   -1.9697 N   0  0  0  0  0  0  0  0  0  0  0  0
   -5.6509    1.0931    0.0054 C   0  0  0  0  0  0  0  0  0  0  0  0
   -5.6468    0.4591    1.3683 C   0  0  0  0  0  0  0  0  0  0  0  0
   -7.0732    0.2366    1.8233 C   0  0  0  0  0  0  0  0  0  0  0  0
   -7.7696   -0.6780    0.8371 C   0  0  0  0  0  0  0  0  0  0  0  0
   -7.6441   -0.1723   -0.5814 C   0  0  0  0  0  0  0  0  0  0  0  0
   -6.1720    0.0337   -0.9633 C   0  0  0  0  0  0  0  0  0  0  0  0
   -5.2312    3.5108   -0.7481 H   0  0  0  0  0  0  0  0  0  0  0  0
   -3.5321    3.5547   -0.1363 H   0  0  0  0  0  0  0  0  0  0  0  0
   -3.8512    3.0252   -1.7960 H   0  0  0  0  0  0  0  0  0  0  0  0
   -1.6782    2.0781   -0.1610 H   0  0  0  0  0  0  0  0  0  0  0  0
   -1.9742    1.4355   -1.8871 H   0  0  0  0  0  0  0  0  0  0  0  0
   -0.9641   -0.3900    0.3763 H   0  0  0  0  0  0  0  0  0  0  0  0
   -1.2512   -0.7514   -1.3217 H   0  0  0  0  0  0  0  0  0  0  0  0
    0.9337   -1.4275    0.2367 H   0  0  0  0  0  0  0  0  0  0  0  0
    1.1392   -1.5501   -1.5143 H   0  0  0  0  0  0  0  0  0  0  0  0
    3.2228   -2.4571    0.3173 H   0  0  0  0  0  0  0  0  0  0  0  0
    6.5928   -0.0670    1.6821 H   0  0  0  0  0  0  0  0  0  0  0  0
    8.6921    0.4938    2.6462 H   0  0  0  0  0  0  0  0  0  0  0  0
   10.5394   -1.0838    2.6910 H   0  0  0  0  0  0  0  0  0  0  0  0
   10.2319   -3.3323    1.6886 H   0  0  0  0  0  0  0  0  0  0  0  0
    8.0293   -3.9653    0.6367 H   0  0  0  0  0  0  0  0  0  0  0  0
    6.5429   -0.0330   -0.6291 H   0  0  0  0  0  0  0  0  0  0  0  0
    4.9788    1.7032   -1.5258 H   0  0  0  0  0  0  0  0  0  0  0  0
   -0.1528    2.4184   -2.9777 H   0  0  0  0  0  0  0  0  0  0  0  0
   -0.1673    3.3214   -1.4438 H   0  0  0  0  0  0  0  0  0  0  0  0
   -6.4353    1.8862   -0.0113 H   0  0  0  0  0  0  0  0  0  0  0  0
   -5.1039    1.1162    2.0558 H   0  0  0  0  0  0  0  0  0  0  0  0
   -5.1869   -0.5705    1.3424 H   0  0  0  0  0  0  0  0  0  0  0  0
   -6.9987   -0.3647    2.7769 H   0  0  0  0  0  0  0  0  0  0  0  0
   -7.6441    1.1524    1.9684 H   0  0  0  0  0  0  0  0  0  0  0  0
   -8.8552   -0.6522    1.0829 H   0  0  0  0  0  0  0  0  0  0  0  0
   -7.4479   -1.7348    0.9329 H   0  0  0  0  0  0  0  0  0  0  0  0
   -8.2039    0.7854   -0.6533 H   0  0  0  0  0  0  0  0  0  0  0  0
   -8.0238   -0.9604   -1.2595 H   0  0  0  0  0  0  0  0  0  0  0  0
   -6.1880    0.4011   -2.0019 H   0  0  0  0  0  0  0  0  0  0  0  0
   -5.6806   -0.9306   -0.8764 H   0  0  0  0  0  0  0  0  0  0  0  0
  1  2  1  0
  2 26  1  0
  2  3  1  0
  3  4  2  0
  3  5  1  0
  5  6  1  0
  6  7  1  0
  7 24  1  0
  7  8  1  0
  8  9  1  0
  9 10  2  0
  9 22  1  0
 10 11  1  0
 11 12  1  0
 11 20  2  0
 12 14  1  0
 12 13  2  0
 14 15  2  0
 14 19  1  0
 15 16  1  0
 16 17  2  0
 17 18  1  0
 18 19  2  0
 20 21  1  0
 21 22  2  0
 22 23  1  0
 23 24  2  0
 24 25  1  0
 26 27  1  0
 26 31  1  0
 27 28  1  0
 28 29  1  0
 29 30  1  0
 30 31  1  0
  1 32  1  0
  1 33  1  0
  1 34  1  0
  5 35  1  0
  5 36  1  0
  6 37  1  0
  6 38  1  0
  8 39  1  0
  8 40  1  0
 10 41  1  0
 15 42  1  0
 16 43  1  0
 17 44  1  0
 18 45  1  0
 19 46  1  0
 20 47  1  0
 21 48  1  0
 25 49  1  0
 25 50  1  0
 26 51  1  0
 27 52  1  0
 27 53  1  0
 28 54  1  0
 28 55  1  0
 29 56  1  0
 29 57  1  0
 30 58  1  0
 30 59  1  0
 31 60  1  0
 31 61  1  0
M  END

