99444075
     RDKit          3D

 45 49  0  0  1  0  0  0  0  0999 V2000
    0.8917    2.8963   -0.1417 O   0  0  0  0  0  0  0  0  0  0  0  0
    1.3668    1.7563   -0.2273 C   0  0  0  0  0  0  0  0  0  0  0  0
    2.7660    1.3056   -0.2632 C   0  0  0  0  0  0  0  0  0  0  0  0
    3.8922    2.2149   -0.4626 C   0  0  0  0  0  0  0  0  0  0  0  0
    3.6919    3.4682   -0.6177 O   0  0  0  0  0  0  0  0  0  0  0  0
    5.2941    1.7689   -0.4983 C   0  0  0  0  0  0  0  0  0  0  0  0
    0.5793    0.5074   -0.3186 C   0  0  2  0  0  0  0  0  0  0  0  0
   -0.4092    0.3325    0.8102 C   0  0  1  0  0  0  0  0  0  0  0  0
   -1.6019    1.1498    0.7207 C   0  0  0  0  0  0  0  0  0  0  0  0
   -1.9440    2.4250    1.1002 C   0  0  0  0  0  0  0  0  0  0  0  0
   -3.2398    2.6240    0.7609 N   0  0  0  0  0  0  0  0  0  0  0  0
   -3.7421    1.5214    0.1765 C   0  0  0  0  0  0  0  0  0  0  0  0
   -2.7199    0.6036    0.1515 C   0  0  0  0  0  0  0  0  0  0  0  0
   -4.9515    1.1322   -0.3585 C   0  0  0  0  0  0  0  0  0  0  0  0
   -5.0985   -0.1330   -0.8902 C   0  0  0  0  0  0  0  0  0  0  0  0
   -4.0529   -1.0340   -0.9021 C   0  0  0  0  0  0  0  0  0  0  0  0
   -2.8173   -0.6528   -0.3621 C   0  0  0  0  0  0  0  0  0  0  0  0
   -1.6519   -1.5410   -0.3578 C   0  0  0  0  0  0  0  0  0  0  0  0
   -0.6801   -1.1493    0.6810 C   0  0  1  0  0  0  0  0  0  0  0  0
    0.7215   -1.6653    0.4465 C   0  0  0  0  0  0  0  0  0  0  0  0
    0.8069   -2.6651   -0.6697 C   0  0  0  0  0  0  0  0  0  0  0  0
    1.2658   -2.3493    1.6949 C   0  0  0  0  0  0  0  0  0  0  0  0
    1.5379   -0.5367    0.0670 N   0  0  0  0  0  0  0  0  0  0  0  0
    2.8372    0.0027   -0.0944 C   0  0  0  0  0  0  0  0  0  0  0  0
    3.9747   -0.8156   -0.0636 O   0  0  0  0  0  0  0  0  0  0  0  0
    5.5152    0.9143    0.1703 H   0  0  0  0  0  0  0  0  0  0  0  0
    5.9399    2.5959   -0.1412 H   0  0  0  0  0  0  0  0  0  0  0  0
    5.5314    1.4904   -1.5463 H   0  0  0  0  0  0  0  0  0  0  0  0
    0.1400    0.3317   -1.2974 H   0  0  0  0  0  0  0  0  0  0  0  0
    0.1401    0.5188    1.7495 H   0  0  0  0  0  0  0  0  0  0  0  0
   -1.3142    3.1768    1.5906 H   0  0  0  0  0  0  0  0  0  0  0  0
   -3.8027    3.5058    0.9189 H   0  0  0  0  0  0  0  0  0  0  0  0
   -5.7714    1.8539   -0.3437 H   0  0  0  0  0  0  0  0  0  0  0  0
   -6.0627   -0.4385   -1.3145 H   0  0  0  0  0  0  0  0  0  0  0  0
   -4.1170   -2.0241   -1.3021 H   0  0  0  0  0  0  0  0  0  0  0  0
   -1.2275   -1.4397   -1.4093 H   0  0  0  0  0  0  0  0  0  0  0  0
   -1.9282   -2.6083   -0.1755 H   0  0  0  0  0  0  0  0  0  0  0  0
   -1.0194   -1.5258    1.6618 H   0  0  0  0  0  0  0  0  0  0  0  0
    1.6820   -3.3344   -0.5360 H   0  0  0  0  0  0  0  0  0  0  0  0
    0.8856   -2.2169   -1.6678 H   0  0  0  0  0  0  0  0  0  0  0  0
   -0.0867   -3.3302   -0.6766 H   0  0  0  0  0  0  0  0  0  0  0  0
    1.6301   -1.6356    2.4426 H   0  0  0  0  0  0  0  0  0  0  0  0
    2.1421   -2.9647    1.3597 H   0  0  0  0  0  0  0  0  0  0  0  0
    0.5108   -3.0589    2.0670 H   0  0  0  0  0  0  0  0  0  0  0  0
    4.4953   -0.9772   -0.9171 H   0  0  0  0  0  0  0  0  0  0  0  0
  1  2  2  0
  2  3  1  0
  2  7  1  0
  3 24  2  0
  3  4  1  0
  4  6  1  0
  4  5  2  0
  7 23  1  0
  7  8  1  0
  8 19  1  0
  8  9  1  0
  9 13  1  0
  9 10  2  0
 10 11  1  0
 11 12  1  0
 12 13  2  0
 12 14  1  0
 13 17  1  0
 14 15  2  0
 15 16  1  0
 16 17  2  0
 17 18  1  0
 18 19  1  0
 19 20  1  0
 20 21  1  0
 20 22  1  0
 20 23  1  0
 23 24  1  0
 24 25  1  0
  6 26  1  0
  6 27  1  0
  6 28  1  0
  7 29  1  6
  8 30  1  1
 10 31  1  0
 11 32  1  0
 14 33  1  0
 15 34  1  0
 16 35  1  0
 18 36  1  0
 18 37  1  0
 19 38  1  1
 21 39  1  0
 21 40  1  0
 21 41  1  0
 22 42  1  0
 22 43  1  0
 22 44  1  0
 25 45  1  0
M  END

