99443279
     RDKit          3D

 53 58  0  0  1  0  0  0  0  0999 V2000
    3.5355   -1.4556    0.9069 C   0  0  0  0  0  0  0  0  0  0  0  0
    2.9802   -1.9667   -0.2335 O   0  0  0  0  0  0  0  0  0  0  0  0
    2.6556   -0.9172   -1.1485 C   0  0  2  0  0  0  0  0  0  0  0  0
    2.7448    0.3330   -0.3495 C   0  0  2  0  0  0  0  0  0  0  0  0
    3.6662    0.0053    0.7915 C   0  0  2  0  0  0  0  0  0  0  0  0
    0.4006   -0.0614   -0.8594 C   0  0  2  0  0  0  0  0  0  0  0  0
    1.3344    0.6269    0.0871 C   0  0  1  0  0  0  0  0  0  0  0  0
   -0.7191   -0.5040    0.0410 C   0  0  2  0  0  0  0  0  0  0  0  0
    0.0036   -0.6500    1.3600 C   0  0  2  0  0  0  0  0  0  0  0  0
    1.0851    0.1856    1.3504 O   0  0  0  0  0  0  0  0  0  0  0  0
    0.3663   -2.0363    1.4333 O   0  0  0  0  0  0  0  0  0  0  0  0
   -0.3508   -2.7772    0.5291 C   0  0  0  0  0  0  0  0  0  0  0  0
   -1.2579   -1.8354   -0.2162 C   0  0  2  0  0  0  0  0  0  0  0  0
    3.8823   -2.1364    1.9056 O   0  0  0  0  0  0  0  0  0  0  0  0
    1.1818   -1.0682   -1.5496 C   0  0  0  0  0  0  0  0  0  0  0  0
   -0.1216    1.0672   -1.7096 C   0  0  1  0  0  0  0  0  0  0  0  0
   -1.6165    0.6474    0.0471 C   0  0  1  0  0  0  0  0  0  0  0  0
   -1.6096    1.1887   -1.3527 C   0  0  0  0  0  0  0  0  0  0  0  0
   -0.3138   -4.0162    0.3050 O   0  0  0  0  0  0  0  0  0  0  0  0
    3.2717    1.3432   -1.1518 O   0  0  0  0  0  0  0  0  0  0  0  0
    5.0970    0.3519    0.4437 C   0  0  0  0  0  0  0  0  0  0  0  0
    1.1385    2.0991   -0.0904 C   0  0  0  0  0  0  0  0  0  0  0  0
    0.5168    2.2418   -1.3086 O   0  0  0  0  0  0  0  0  0  0  0  0
    1.5058    2.9345    0.7621 O   0  0  0  0  0  0  0  0  0  0  0  0
   -1.3710   -2.2122   -1.5469 O   0  0  0  0  0  0  0  0  0  0  0  0
   -2.9874    0.5608    0.5595 C   0  0  0  0  0  0  0  0  0  0  0  0
   -3.1168    0.1627    2.0115 C   0  0  0  0  0  0  0  0  0  0  0  0
   -3.4864    2.0277    0.5550 C   0  0  0  0  0  0  0  0  0  0  0  0
   -3.9766   -0.1890   -0.2789 C   0  0  0  0  0  0  0  0  0  0  0  0
    3.3290   -0.9659   -2.0066 H   0  0  0  0  0  0  0  0  0  0  0  0
    3.3299    0.5593    1.6845 H   0  0  0  0  0  0  0  0  0  0  0  0
   -0.6012   -0.4468    2.2409 H   0  0  0  0  0  0  0  0  0  0  0  0
   -2.2495   -1.9762    0.2311 H   0  0  0  0  0  0  0  0  0  0  0  0
    1.1769   -0.8418   -2.6573 H   0  0  0  0  0  0  0  0  0  0  0  0
    0.9506   -2.1167   -1.4489 H   0  0  0  0  0  0  0  0  0  0  0  0
    0.0282    0.9199   -2.7854 H   0  0  0  0  0  0  0  0  0  0  0  0
   -1.1086    1.4546    0.6678 H   0  0  0  0  0  0  0  0  0  0  0  0
   -1.8573    2.2892   -1.2956 H   0  0  0  0  0  0  0  0  0  0  0  0
   -2.2303    0.6608   -2.0709 H   0  0  0  0  0  0  0  0  0  0  0  0
    3.3835    2.1876   -0.6127 H   0  0  0  0  0  0  0  0  0  0  0  0
    5.6192    0.6339    1.3795 H   0  0  0  0  0  0  0  0  0  0  0  0
    5.1715    1.2103   -0.2570 H   0  0  0  0  0  0  0  0  0  0  0  0
    5.5765   -0.5341   -0.0410 H   0  0  0  0  0  0  0  0  0  0  0  0
   -1.4981   -3.1949   -1.5595 H   0  0  0  0  0  0  0  0  0  0  0  0
   -2.5554    0.8735    2.6577 H   0  0  0  0  0  0  0  0  0  0  0  0
   -2.9565   -0.8855    2.2330 H   0  0  0  0  0  0  0  0  0  0  0  0
   -4.2000    0.3641    2.2726 H   0  0  0  0  0  0  0  0  0  0  0  0
   -3.8025    2.2218   -0.4928 H   0  0  0  0  0  0  0  0  0  0  0  0
   -4.3919    2.1155    1.1847 H   0  0  0  0  0  0  0  0  0  0  0  0
   -2.6733    2.7044    0.8292 H   0  0  0  0  0  0  0  0  0  0  0  0
   -4.8670    0.4202   -0.5890 H   0  0  0  0  0  0  0  0  0  0  0  0
   -3.5744   -0.6013   -1.2164 H   0  0  0  0  0  0  0  0  0  0  0  0
   -4.4379   -1.0017    0.3594 H   0  0  0  0  0  0  0  0  0  0  0  0
  1  2  1  0
  3  2  1  0
  3  4  1  0
  4  5  1  0
  1  5  1  0
  6  7  1  0
  4  7  1  0
  8  6  1  6
  9 10  1  0
  7 10  1  1
  8  9  1  0
  9 11  1  0
 11 12  1  0
 12 13  1  0
  8 13  1  0
  1 14  2  0
  3 15  1  0
  6 15  1  6
  6 16  1  0
  8 17  1  0
 17 18  1  0
 16 18  1  0
 12 19  2  0
  4 20  1  6
  5 21  1  0
  7 22  1  0
 22 23  1  0
 16 23  1  0
 22 24  2  0
 13 25  1  0
 17 26  1  0
 26 27  1  0
 26 28  1  0
 26 29  1  0
  3 30  1  6
  5 31  1  1
  9 32  1  1
 13 33  1  1
 15 34  1  0
 15 35  1  0
 16 36  1  6
 17 37  1  1
 18 38  1  0
 18 39  1  0
 20 40  1  0
 21 41  1  0
 21 42  1  0
 21 43  1  0
 25 44  1  0
 27 45  1  0
 27 46  1  0
 27 47  1  0
 28 48  1  0
 28 49  1  0
 28 50  1  0
 29 51  1  0
 29 52  1  0
 29 53  1  0
M  END

