99443675
     RDKit          3D

 51 55  0  0  1  0  0  0  0  0999 V2000
   -8.9653   -0.3222    1.3840 N   0  0  0  0  0  0  0  0  0  0  0  0
   -8.1834    0.6505    1.9020 C   0  0  0  0  0  0  0  0  0  0  0  0
   -6.8516    0.8012    1.5581 C   0  0  0  0  0  0  0  0  0  0  0  0
   -6.3099   -0.0741    0.6558 C   0  0  0  0  0  0  0  0  0  0  0  0
   -7.1362   -1.0573    0.1448 C   0  0  0  0  0  0  0  0  0  0  0  0
   -8.4593   -1.2002    0.4920 C   0  0  0  0  0  0  0  0  0  0  0  0
   -4.8958   -0.0005    0.2212 C   0  0  0  0  0  0  0  0  0  0  0  0
   -4.0224    0.9487    0.6907 C   0  0  0  0  0  0  0  0  0  0  0  0
   -2.6963    0.9715    0.2455 C   0  0  0  0  0  0  0  0  0  0  0  0
   -2.2462    0.0428   -0.6703 C   0  0  0  0  0  0  0  0  0  0  0  0
   -3.1435   -0.8892   -1.1174 C   0  0  0  0  0  0  0  0  0  0  0  0
   -4.4341   -0.8944   -0.6702 N   0  0  0  0  0  0  0  0  0  0  0  0
   -0.9050    0.0768   -1.1133 C   0  0  0  0  0  0  0  0  0  0  0  0
   -0.5348   -0.8812   -2.0273 C   0  0  0  0  0  0  0  0  0  0  0  0
   -1.4305   -1.7921   -2.4571 N   0  0  0  0  0  0  0  0  0  0  0  0
   -2.7003   -1.8164   -2.0310 C   0  0  0  0  0  0  0  0  0  0  0  0
   -0.1102    1.0074   -0.6356 O   0  0  0  0  0  0  0  0  0  0  0  0
    1.0914    1.5685   -0.5838 C   0  0  0  0  0  0  0  0  0  0  0  0
    2.2819    0.8557   -0.0492 C   0  0  1  0  0  0  0  0  0  0  0  0
    2.1138    0.4662    1.3460 N   0  0  0  0  0  0  0  0  0  0  0  0
    2.7380   -0.3635   -0.7781 C   0  0  0  0  0  0  0  0  0  0  0  0
    3.9483   -0.8653   -0.0621 C   0  0  0  0  0  0  0  0  0  0  0  0
    4.0718   -1.9221    0.7929 C   0  0  0  0  0  0  0  0  0  0  0  0
    5.3353   -2.0316    1.2224 N   0  0  0  0  0  0  0  0  0  0  0  0
    6.0465   -1.0453    0.6497 C   0  0  0  0  0  0  0  0  0  0  0  0
    5.1939   -0.2954   -0.1657 C   0  0  0  0  0  0  0  0  0  0  0  0
    7.3677   -0.6587    0.7087 C   0  0  0  0  0  0  0  0  0  0  0  0
    7.8159    0.4192   -0.0077 C   0  0  0  0  0  0  0  0  0  0  0  0
    6.9872    1.1685   -0.8161 C   0  0  0  0  0  0  0  0  0  0  0  0
    5.6722    0.7932   -0.8823 C   0  0  0  0  0  0  0  0  0  0  0  0
   -8.6014    1.3341    2.6050 H   0  0  0  0  0  0  0  0  0  0  0  0
   -6.2435    1.5862    1.9839 H   0  0  0  0  0  0  0  0  0  0  0  0
   -6.6936   -1.7408   -0.5667 H   0  0  0  0  0  0  0  0  0  0  0  0
   -9.0903   -1.9892    0.0704 H   0  0  0  0  0  0  0  0  0  0  0  0
   -4.3260    1.6820    1.3956 H   0  0  0  0  0  0  0  0  0  0  0  0
   -1.9903    1.7057    0.5978 H   0  0  0  0  0  0  0  0  0  0  0  0
    0.4828   -0.9278   -2.4448 H   0  0  0  0  0  0  0  0  0  0  0  0
   -3.3907   -2.5573   -2.3938 H   0  0  0  0  0  0  0  0  0  0  0  0
    0.9886    2.5702   -0.0180 H   0  0  0  0  0  0  0  0  0  0  0  0
    1.3658    1.9824   -1.6285 H   0  0  0  0  0  0  0  0  0  0  0  0
    3.1255    1.6049   -0.0349 H   0  0  0  0  0  0  0  0  0  0  0  0
    1.2257   -0.0138    1.5378 H   0  0  0  0  0  0  0  0  0  0  0  0
    2.3240    1.2564    1.9917 H   0  0  0  0  0  0  0  0  0  0  0  0
    1.9488   -1.1612   -0.6496 H   0  0  0  0  0  0  0  0  0  0  0  0
    2.9704   -0.1980   -1.8436 H   0  0  0  0  0  0  0  0  0  0  0  0
    3.2577   -2.5755    1.0787 H   0  0  0  0  0  0  0  0  0  0  0  0
    5.7089   -2.7355    1.8712 H   0  0  0  0  0  0  0  0  0  0  0  0
    8.0600   -1.2139    1.3291 H   0  0  0  0  0  0  0  0  0  0  0  0
    8.8785    0.7154    0.0510 H   0  0  0  0  0  0  0  0  0  0  0  0
    7.3729    2.0037   -1.3608 H   0  0  0  0  0  0  0  0  0  0  0  0
    4.9873    1.3691   -1.5180 H   0  0  0  0  0  0  0  0  0  0  0  0
  1  2  2  0
  1  6  1  0
  2  3  1  0
  3  4  2  0
  4  5  1  0
  4  7  1  0
  5  6  2  0
  7  8  2  0
  7 12  1  0
  8  9  1  0
  9 10  2  0
 10 11  1  0
 10 13  1  0
 11 12  2  0
 11 16  1  0
 13 14  2  0
 13 17  1  0
 14 15  1  0
 15 16  2  0
 17 18  1  0
 18 19  1  0
 19 20  1  0
 19 21  1  0
 21 22  1  0
 22 23  2  0
 22 26  1  0
 23 24  1  0
 24 25  1  0
 25 26  2  0
 25 27  1  0
 26 30  1  0
 27 28  2  0
 28 29  1  0
 29 30  2  0
  2 31  1  0
  3 32  1  0
  5 33  1  0
  6 34  1  0
  8 35  1  0
  9 36  1  0
 14 37  1  0
 16 38  1  0
 18 39  1  0
 18 40  1  0
 19 41  1  1
 20 42  1  0
 20 43  1  0
 21 44  1  0
 21 45  1  0
 23 46  1  0
 24 47  1  0
 27 48  1  0
 28 49  1  0
 29 50  1  0
 30 51  1  0
M  END

