99445147
     RDKit          3D

 61 66  0  0  1  0  0  0  0  0999 V2000
    4.7342   -2.9539    1.0479 C   0  0  0  0  0  0  0  0  0  0  0  0
    3.6921   -3.7532    0.6992 C   0  0  0  0  0  0  0  0  0  0  0  0
    4.5877   -1.6268    0.7809 C   0  0  0  0  0  0  0  0  0  0  0  0
   -4.3690   -0.3117   -0.6677 C   0  0  0  0  0  0  0  0  0  0  0  0
   -4.6259   -1.7381   -1.0552 C   0  0  0  0  0  0  0  0  0  0  0  0
    1.5975   -4.1961   -0.1760 C   0  0  0  0  0  0  0  0  0  0  0  0
    0.4446   -3.7505   -0.7606 C   0  0  0  0  0  0  0  0  0  0  0  0
   -0.7610    2.7204    1.2598 C   0  0  0  0  0  0  0  0  0  0  0  0
    3.0758    2.2349    1.2294 C   0  0  0  0  0  0  0  0  0  0  0  0
    0.5697    3.2629    0.7761 C   0  0  0  0  0  0  0  0  0  0  0  0
    4.2359    1.2906    1.0004 C   0  0  0  0  0  0  0  0  0  0  0  0
   -2.0984   -0.8668   -0.0334 C   0  0  0  0  0  0  0  0  0  0  0  0
    1.1909   -1.4434   -0.7763 C   0  0  0  0  0  0  0  0  0  0  0  0
   -3.0889   -3.5813   -0.5027 C   0  0  0  0  0  0  0  0  0  0  0  0
   -1.9644    4.2668   -0.4224 C   0  0  0  0  0  0  0  0  0  0  0  0
   -3.3100    1.2091    0.9512 C   0  0  0  0  0  0  0  0  0  0  0  0
   -3.8117    3.1220   -0.6122 C   0  0  0  0  0  0  0  0  0  0  0  0
   -3.3092    0.0261    0.0715 C   0  0  0  0  0  0  0  0  0  0  0  0
    2.5552   -3.2195    0.1058 C   0  0  0  0  0  0  0  0  0  0  0  0
   -3.3661   -2.4617   -1.4349 C   0  0  2  0  0  0  0  0  0  0  0  0
   -1.8888    3.1393    0.3834 C   0  0  0  0  0  0  0  0  0  0  0  0
    0.2292   -2.4030   -1.0605 C   0  0  0  0  0  0  0  0  0  0  0  0
    2.3687   -1.8633   -0.1840 C   0  0  0  0  0  0  0  0  0  0  0  0
    2.5428    2.4017   -0.1468 C   0  0  1  0  0  0  0  0  0  0  0  0
    3.4625   -1.0536    0.1865 C   0  0  0  0  0  0  0  0  0  0  0  0
   -2.1736   -1.5316   -1.3914 C   0  0  0  0  0  0  0  0  0  0  0  0
    3.1201    1.2355   -0.9571 C   0  0  0  0  0  0  0  0  0  0  0  0
   -2.8797   -4.4625    0.2086 N   0  0  0  0  0  0  0  0  0  0  0  0
   -3.1674    4.2193   -1.0203 N   0  0  0  0  0  0  0  0  0  0  0  0
    1.1093    2.3929   -0.2297 N   0  0  0  0  0  0  0  0  0  0  0  0
   -3.0232    2.4445    0.2613 N   0  0  0  0  0  0  0  0  0  0  0  0
    3.5841    0.3724    0.0331 N   0  0  0  0  0  0  0  0  0  0  0  0
    3.0107    1.3961   -2.2033 O   0  0  0  0  0  0  0  0  0  0  0  0
   -1.0134   -2.2249   -1.6427 O   0  0  0  0  0  0  0  0  0  0  0  0
    5.6146   -3.3795    1.5090 H   0  0  0  0  0  0  0  0  0  0  0  0
    3.7698   -4.8182    0.8954 H   0  0  0  0  0  0  0  0  0  0  0  0
    5.4488   -0.9924    1.0736 H   0  0  0  0  0  0  0  0  0  0  0  0
   -5.0437    0.4809   -0.9820 H   0  0  0  0  0  0  0  0  0  0  0  0
   -5.3585   -1.7255   -1.8878 H   0  0  0  0  0  0  0  0  0  0  0  0
   -5.0355   -2.2325   -0.1452 H   0  0  0  0  0  0  0  0  0  0  0  0
    1.7613   -5.2498    0.0571 H   0  0  0  0  0  0  0  0  0  0  0  0
   -0.2790   -4.5618   -0.9820 H   0  0  0  0  0  0  0  0  0  0  0  0
   -0.6729    1.6430    1.3829 H   0  0  0  0  0  0  0  0  0  0  0  0
   -1.0090    3.1358    2.2806 H   0  0  0  0  0  0  0  0  0  0  0  0
    3.3842    3.1733    1.7206 H   0  0  0  0  0  0  0  0  0  0  0  0
    2.3258    1.6672    1.8300 H   0  0  0  0  0  0  0  0  0  0  0  0
    0.3696    4.2692    0.3569 H   0  0  0  0  0  0  0  0  0  0  0  0
    1.2785    3.4315    1.6218 H   0  0  0  0  0  0  0  0  0  0  0  0
    5.1070    1.7738    0.5228 H   0  0  0  0  0  0  0  0  0  0  0  0
    4.5827    0.8003    1.8999 H   0  0  0  0  0  0  0  0  0  0  0  0
   -2.2140   -1.6063    0.7878 H   0  0  0  0  0  0  0  0  0  0  0  0
   -1.1711   -0.2757    0.0337 H   0  0  0  0  0  0  0  0  0  0  0  0
    0.9555   -0.3695   -1.0735 H   0  0  0  0  0  0  0  0  0  0  0  0
   -1.2598    5.0507   -0.5856 H   0  0  0  0  0  0  0  0  0  0  0  0
   -2.5789    1.0450    1.7913 H   0  0  0  0  0  0  0  0  0  0  0  0
   -4.2995    1.2778    1.4448 H   0  0  0  0  0  0  0  0  0  0  0  0
   -4.8023    2.8671   -0.9575 H   0  0  0  0  0  0  0  0  0  0  0  0
   -3.4173   -2.8739   -2.4589 H   0  0  0  0  0  0  0  0  0  0  0  0
    2.9083    3.3690   -0.5448 H   0  0  0  0  0  0  0  0  0  0  0  0
   -2.3603   -0.7330   -2.1403 H   0  0  0  0  0  0  0  0  0  0  0  0
    0.7356    2.5407   -1.1685 H   0  0  0  0  0  0  0  0  0  0  0  0
  1  2  2  0
  1  3  1  0
  4  5  1  0
  6  7  1  0
  8 10  1  0
  9 11  1  0
  4 18  2  0
 12 18  1  0
 16 18  1  0
  2 19  1  0
  6 19  2  0
  5 20  1  0
 14 20  1  0
  8 21  1  0
 15 21  2  0
  7 22  2  0
 13 22  1  0
 13 23  2  0
 19 23  1  0
  9 24  1  0
  3 25  2  0
 23 25  1  0
 12 26  1  0
 20 26  1  0
 24 27  1  0
 14 28  3  0
 15 29  1  0
 17 29  2  0
 10 30  1  0
 24 30  1  0
 16 31  1  0
 17 31  1  0
 21 31  1  0
 11 32  1  0
 25 32  1  0
 27 32  1  0
 27 33  2  0
 22 34  1  0
 26 34  1  0
  1 35  1  0
  2 36  1  0
  3 37  1  0
  4 38  1  0
  5 39  1  0
  5 40  1  0
  6 41  1  0
  7 42  1  0
  8 43  1  0
  8 44  1  0
  9 45  1  0
  9 46  1  0
 10 47  1  0
 10 48  1  0
 11 49  1  0
 11 50  1  0
 12 51  1  0
 12 52  1  0
 13 53  1  0
 15 54  1  0
 16 55  1  0
 16 56  1  0
 17 57  1  0
 20 58  1  6
 24 59  1  6
 26 60  1  0
 30 61  1  0
M  END

