99443753
     RDKit          3D

 29 29  0  0  0  0  0  0  0  0999 V2000
   -4.6605   -0.7641    0.5253 C   0  0  0  0  0  0  0  0  0  0  0  0
   -3.2744   -0.9944    0.3932 O   0  0  0  0  0  0  0  0  0  0  0  0
   -2.3758    0.0344    0.1268 C   0  0  0  0  0  0  0  0  0  0  0  0
   -2.8953    1.2934   -0.0063 C   0  0  0  0  0  0  0  0  0  0  0  0
   -2.0807    2.3642   -0.2714 C   0  0  0  0  0  0  0  0  0  0  0  0
   -0.7355    2.1299   -0.3974 C   0  0  0  0  0  0  0  0  0  0  0  0
   -0.1934    0.8522   -0.2631 C   0  0  0  0  0  0  0  0  0  0  0  0
   -1.0012   -0.2040   -0.0010 C   0  0  0  0  0  0  0  0  0  0  0  0
   -0.6155   -1.5901    0.1656 C   0  0  0  0  0  0  0  0  0  0  0  0
    0.5773   -1.9608    0.0931 N   0  0  0  0  0  0  0  0  0  0  0  0
    1.6211   -1.1838   -0.1348 O   0  0  0  0  0  0  0  0  0  0  0  0
    2.9240   -1.7204   -0.2482 C   0  0  0  0  0  0  0  0  0  0  0  0
    3.9422   -0.6193   -0.5022 C   0  0  0  0  0  0  0  0  0  0  0  0
    3.8965    0.3065    0.6475 C   0  0  0  0  0  0  0  0  0  0  0  0
    3.6667    1.6525    0.4442 O   0  0  0  0  0  0  0  0  0  0  0  0
    4.0627   -0.1129    1.8197 O   0  0  0  0  0  0  0  0  0  0  0  0
   -5.0902   -0.3018   -0.4051 H   0  0  0  0  0  0  0  0  0  0  0  0
   -5.1403   -1.7394    0.7367 H   0  0  0  0  0  0  0  0  0  0  0  0
   -4.8371   -0.0450    1.3527 H   0  0  0  0  0  0  0  0  0  0  0  0
   -3.9761    1.4665    0.1016 H   0  0  0  0  0  0  0  0  0  0  0  0
   -2.4930    3.3815   -0.3785 H   0  0  0  0  0  0  0  0  0  0  0  0
   -0.0758    2.9590   -0.6056 H   0  0  0  0  0  0  0  0  0  0  0  0
    0.8594    0.7090   -0.3668 H   0  0  0  0  0  0  0  0  0  0  0  0
   -1.4048   -2.3534    0.3648 H   0  0  0  0  0  0  0  0  0  0  0  0
    3.0398   -2.4315   -1.1201 H   0  0  0  0  0  0  0  0  0  0  0  0
    3.2288   -2.3104    0.6427 H   0  0  0  0  0  0  0  0  0  0  0  0
    3.6663   -0.0682   -1.4423 H   0  0  0  0  0  0  0  0  0  0  0  0
    4.9503   -1.0371   -0.6871 H   0  0  0  0  0  0  0  0  0  0  0  0
    4.4145    2.2873    0.2086 H   0  0  0  0  0  0  0  0  0  0  0  0
  1  2  1  0
  2  3  1  0
  3  8  2  0
  3  4  1  0
  4  5  2  0
  5  6  1  0
  6  7  2  0
  7  8  1  0
  8  9  1  0
  9 10  2  0
 10 11  1  0
 11 12  1  0
 12 13  1  0
 13 14  1  0
 14 16  2  0
 14 15  1  0
  1 17  1  0
  1 18  1  0
  1 19  1  0
  4 20  1  0
  5 21  1  0
  6 22  1  0
  7 23  1  0
  9 24  1  0
 12 25  1  0
 12 26  1  0
 13 27  1  0
 13 28  1  0
 15 29  1  0
M  END

