99444102
     RDKit          3D

 52 51  0  0  0  0  0  0  0  0999 V2000
   -4.7550   -0.2847   -0.3139 N   0  0  0  0  0  4  0  0  0  0  0  0
   -4.4683   -1.6949   -0.1335 C   0  0  0  0  0  0  0  0  0  0  0  0
   -6.1889   -0.1368   -0.4558 C   0  0  0  0  0  0  0  0  0  0  0  0
   -6.5997    1.1775   -0.9928 C   0  0  0  0  0  0  0  0  0  0  0  0
   -7.9301    1.4994   -1.1967 O   0  0  0  0  0  1  0  0  0  0  0  0
   -5.7310    2.0324   -1.2752 O   0  0  0  0  0  0  0  0  0  0  0  0
   -4.1194    0.1114   -1.5368 C   0  0  0  0  0  0  0  0  0  0  0  0
   -4.3777    0.4957    0.8390 C   0  0  0  0  0  0  0  0  0  0  0  0
   -2.9501    0.8755    0.9365 C   0  0  0  0  0  0  0  0  0  0  0  0
   -2.0016   -0.2855    0.9935 C   0  0  0  0  0  0  0  0  0  0  0  0
   -0.5468    0.2042    1.0932 C   0  0  0  0  0  0  0  0  0  0  0  0
    0.3818   -0.9846    1.1487 C   0  0  0  0  0  0  0  0  0  0  0  0
    1.8272   -0.6253    1.2589 C   0  0  0  0  0  0  0  0  0  0  0  0
    2.2587    0.1949    0.0712 C   0  0  0  0  0  0  0  0  0  0  0  0
    3.7088    0.6060    0.1062 C   0  0  0  0  0  0  0  0  0  0  0  0
    4.5817   -0.6080    0.1284 C   0  0  0  0  0  0  0  0  0  0  0  0
    6.0611   -0.2796    0.1576 C   0  0  0  0  0  0  0  0  0  0  0  0
    6.4464    0.5144   -1.0623 C   0  0  0  0  0  0  0  0  0  0  0  0
    7.9441    0.8034   -0.9797 C   0  0  0  0  0  0  0  0  0  0  0  0
   -5.4229   -2.2483   -0.1924 H   0  0  0  0  0  0  0  0  0  0  0  0
   -3.8293   -2.1160   -0.9400 H   0  0  0  0  0  0  0  0  0  0  0  0
   -4.0624   -1.9170    0.8867 H   0  0  0  0  0  0  0  0  0  0  0  0
   -6.6053   -0.9148   -1.1627 H   0  0  0  0  0  0  0  0  0  0  0  0
   -6.7174   -0.3633    0.5141 H   0  0  0  0  0  0  0  0  0  0  0  0
   -4.8867    0.1398   -2.3396 H   0  0  0  0  0  0  0  0  0  0  0  0
   -3.3834   -0.6602   -1.9012 H   0  0  0  0  0  0  0  0  0  0  0  0
   -3.6168    1.0987   -1.5043 H   0  0  0  0  0  0  0  0  0  0  0  0
   -4.9914    1.4163    0.8400 H   0  0  0  0  0  0  0  0  0  0  0  0
   -4.6906   -0.0820    1.7315 H   0  0  0  0  0  0  0  0  0  0  0  0
   -2.8368    1.4018    1.9324 H   0  0  0  0  0  0  0  0  0  0  0  0
   -2.6462    1.6302    0.1972 H   0  0  0  0  0  0  0  0  0  0  0  0
   -2.0367   -0.8849    0.0657 H   0  0  0  0  0  0  0  0  0  0  0  0
   -2.1686   -0.8690    1.9155 H   0  0  0  0  0  0  0  0  0  0  0  0
   -0.3874    0.8240    1.9752 H   0  0  0  0  0  0  0  0  0  0  0  0
   -0.2905    0.7702    0.1639 H   0  0  0  0  0  0  0  0  0  0  0  0
    0.0902   -1.5741    2.0451 H   0  0  0  0  0  0  0  0  0  0  0  0
    0.2566   -1.6560    0.2767 H   0  0  0  0  0  0  0  0  0  0  0  0
    2.3879   -1.5944    1.3060 H   0  0  0  0  0  0  0  0  0  0  0  0
    2.0118   -0.0971    2.2215 H   0  0  0  0  0  0  0  0  0  0  0  0
    1.6665    1.1454   -0.0022 H   0  0  0  0  0  0  0  0  0  0  0  0
    2.0091   -0.3686   -0.8531 H   0  0  0  0  0  0  0  0  0  0  0  0
    3.9201    1.2946    0.9510 H   0  0  0  0  0  0  0  0  0  0  0  0
    3.9659    1.2030   -0.8112 H   0  0  0  0  0  0  0  0  0  0  0  0
    4.3866   -1.1860   -0.7907 H   0  0  0  0  0  0  0  0  0  0  0  0
    4.3146   -1.2613    1.0039 H   0  0  0  0  0  0  0  0  0  0  0  0
    6.2750    0.2915    1.0824 H   0  0  0  0  0  0  0  0  0  0  0  0
    6.6800   -1.1914    0.2053 H   0  0  0  0  0  0  0  0  0  0  0  0
    6.1799   -0.0287   -1.9899 H   0  0  0  0  0  0  0  0  0  0  0  0
    5.9305    1.5136   -1.0762 H   0  0  0  0  0  0  0  0  0  0  0  0
    8.1439    1.8096   -1.3946 H   0  0  0  0  0  0  0  0  0  0  0  0
    8.5092    0.0872   -1.6098 H   0  0  0  0  0  0  0  0  0  0  0  0
    8.3034    0.7721    0.0790 H   0  0  0  0  0  0  0  0  0  0  0  0
  1  2  1  0
  1  3  1  0
  3  4  1  0
  4  5  1  0
  4  6  2  0
  1  7  1  0
  1  8  1  0
  8  9  1  0
  9 10  1  0
 10 11  1  0
 11 12  1  0
 12 13  1  0
 13 14  1  0
 14 15  1  0
 15 16  1  0
 16 17  1  0
 17 18  1  0
 18 19  1  0
  2 20  1  0
  2 21  1  0
  2 22  1  0
  3 23  1  0
  3 24  1  0
  7 25  1  0
  7 26  1  0
  7 27  1  0
  8 28  1  0
  8 29  1  0
  9 30  1  0
  9 31  1  0
 10 32  1  0
 10 33  1  0
 11 34  1  0
 11 35  1  0
 12 36  1  0
 12 37  1  0
 13 38  1  0
 13 39  1  0
 14 40  1  0
 14 41  1  0
 15 42  1  0
 15 43  1  0
 16 44  1  0
 16 45  1  0
 17 46  1  0
 17 47  1  0
 18 48  1  0
 18 49  1  0
 19 50  1  0
 19 51  1  0
 19 52  1  0
M  CHG  2   1   1   5  -1
M  END

