99445036
     RDKit          3D

 37 38  0  0  1  0  0  0  0  0999 V2000
    2.7631    0.7344   -1.7628 O   0  0  0  0  0  0  0  0  0  0  0  0
    0.4430    1.0748   -1.9799 O   0  0  0  0  0  0  0  0  0  0  0  0
    1.8000    2.4975   -0.5339 O   0  0  0  0  0  0  0  0  0  0  0  0
    2.7153   -2.2669    0.3856 O   0  0  0  0  0  0  0  0  0  0  0  0
    2.5332   -0.0367    0.8537 N   0  0  0  0  0  0  0  0  0  0  0  0
    1.2729    0.1093    0.1387 C   0  0  1  0  0  0  0  0  0  0  0  0
    0.1782    0.5885    1.0749 C   0  0  0  0  0  0  0  0  0  0  0  0
   -1.1188    0.7513    0.4174 C   0  0  0  0  0  0  0  0  0  0  0  0
   -1.9645   -0.3032    0.1414 C   0  0  0  0  0  0  0  0  0  0  0  0
   -3.1878   -0.1081   -0.5191 C   0  0  0  0  0  0  0  0  0  0  0  0
   -1.4669    2.0517    0.0419 C   0  0  0  0  0  0  0  0  0  0  0  0
   -1.6387   -1.5875    0.5149 C   0  0  0  0  0  0  0  0  0  0  0  0
   -3.5207    1.1818   -0.8859 C   0  0  0  0  0  0  0  0  0  0  0  0
   -2.6688    2.2345   -0.6055 C   0  0  0  0  0  0  0  0  0  0  0  0
   -4.0411   -1.1332   -0.7953 C   0  0  0  0  0  0  0  0  0  0  0  0
    3.2198   -1.2571    0.9480 C   0  0  0  0  0  0  0  0  0  0  0  0
   -2.4872   -2.6380    0.2453 C   0  0  0  0  0  0  0  0  0  0  0  0
   -3.6952   -2.4100   -0.4137 C   0  0  0  0  0  0  0  0  0  0  0  0
    4.4978   -1.4194    1.6692 C   0  0  0  0  0  0  0  0  0  0  0  0
    1.5573    1.1565   -1.0231 B   0  0  0  0  0  4  0  0  0  0  0  0
    3.5449    1.2918   -1.5367 H   0  0  0  0  0  0  0  0  0  0  0  0
    0.5942    1.6718   -2.7394 H   0  0  0  0  0  0  0  0  0  0  0  0
    2.1655    3.0289   -1.2987 H   0  0  0  0  0  0  0  0  0  0  0  0
    2.9321    0.8075    1.3106 H   0  0  0  0  0  0  0  0  0  0  0  0
    0.9717   -0.8559   -0.2890 H   0  0  0  0  0  0  0  0  0  0  0  0
    0.5061    1.5403    1.5878 H   0  0  0  0  0  0  0  0  0  0  0  0
    0.1784   -0.1673    1.8992 H   0  0  0  0  0  0  0  0  0  0  0  0
   -0.8047    2.8730    0.2601 H   0  0  0  0  0  0  0  0  0  0  0  0
   -0.7195   -1.7744    1.0301 H   0  0  0  0  0  0  0  0  0  0  0  0
   -4.4670    1.3830   -1.4047 H   0  0  0  0  0  0  0  0  0  0  0  0
   -2.9233    3.2637   -0.8922 H   0  0  0  0  0  0  0  0  0  0  0  0
   -4.9802   -0.9504   -1.3083 H   0  0  0  0  0  0  0  0  0  0  0  0
   -2.2698   -3.6727    0.5227 H   0  0  0  0  0  0  0  0  0  0  0  0
   -4.3546   -3.2398   -0.6214 H   0  0  0  0  0  0  0  0  0  0  0  0
    4.4227   -2.3563    2.2679 H   0  0  0  0  0  0  0  0  0  0  0  0
    5.3338   -1.5037    0.9518 H   0  0  0  0  0  0  0  0  0  0  0  0
    4.6790   -0.5598    2.3485 H   0  0  0  0  0  0  0  0  0  0  0  0
  1 20  1  0
  2 20  1  0
  3 20  1  0
  4 16  2  0
  6  5  1  0
  5 16  1  0
  6  7  1  0
  6 20  1  0
  7  8  1  0
  8  9  2  0
  8 11  1  0
  9 10  1  0
  9 12  1  0
 10 13  2  0
 10 15  1  0
 11 14  2  0
 12 17  2  0
 13 14  1  0
 15 18  2  0
 16 19  1  0
 17 18  1  0
  1 21  1  0
  2 22  1  0
  3 23  1  0
  5 24  1  0
  6 25  1  6
  7 26  1  0
  7 27  1  0
 11 28  1  0
 12 29  1  0
 13 30  1  0
 14 31  1  0
 15 32  1  0
 17 33  1  0
 18 34  1  0
 19 35  1  0
 19 36  1  0
 19 37  1  0
M  CHG  1  20  -1
M  END

