99444150
     RDKit          3D

 52 53  0  0  1  0  0  0  0  0999 V2000
    3.2186   -0.1612    1.9722 C   0  0  0  0  0  0  0  0  0  0  0  0
    2.8270    0.4784    0.6526 C   0  0  0  0  0  0  0  0  0  0  0  0
    3.8610    0.1522   -0.3884 C   0  0  0  0  0  0  0  0  0  0  0  0
    1.4771   -0.0696    0.1809 C   0  0  1  0  0  0  0  0  0  0  0  0
    1.0755    0.5282   -1.1035 C   0  0  0  0  0  0  0  0  0  0  0  0
    0.6135   -0.3451   -1.9665 O   0  0  0  0  0  0  0  0  0  0  0  0
    1.1379    1.8654   -1.4718 N   0  0  0  0  0  0  0  0  0  0  0  0
    0.5764    3.0524   -0.9128 C   0  0  2  0  0  0  0  0  0  0  0  0
    1.5994    4.0465   -0.5022 C   0  0  0  0  0  0  0  0  0  0  0  0
    2.7971    3.7736   -0.7126 O   0  0  0  0  0  0  0  0  0  0  0  0
    1.2290    5.2156    0.0847 O   0  0  0  0  0  0  0  0  0  0  0  0
   -0.5083    2.8979    0.1036 C   0  0  0  0  0  0  0  0  0  0  0  0
   -1.4674    1.7596   -0.0216 C   0  0  0  0  0  0  0  0  0  0  0  0
   -1.8862    1.0108    1.0582 C   0  0  0  0  0  0  0  0  0  0  0  0
   -2.7768   -0.0961    0.9342 C   0  0  0  0  0  0  0  0  0  0  0  0
   -1.9487    1.4059   -1.2528 C   0  0  0  0  0  0  0  0  0  0  0  0
   -2.8411    0.2926   -1.3621 C   0  0  0  0  0  0  0  0  0  0  0  0
   -3.2381   -0.4363   -0.2920 C   0  0  0  0  0  0  0  0  0  0  0  0
   -4.1029   -1.5241   -0.4333 O   0  0  0  0  0  0  0  0  0  0  0  0
   -3.7234   -2.8708   -0.6551 C   0  0  0  0  0  0  0  0  0  0  0  0
   -2.2023   -2.8948   -0.6700 C   0  0  0  0  0  0  0  0  0  0  0  0
   -1.7284   -3.1887    0.7126 C   0  0  0  0  0  0  0  0  0  0  0  0
   -0.4260   -2.6058    1.1162 C   0  0  0  0  0  0  0  0  0  0  0  0
    0.5690   -2.4507    0.0286 C   0  0  0  0  0  0  0  0  0  0  0  0
    0.4128   -3.2378   -0.9699 O   0  0  0  0  0  0  0  0  0  0  0  0
    1.6401   -1.5272    0.0193 N   0  0  0  0  0  0  0  0  0  0  0  0
    2.4133    0.0165    2.6909 H   0  0  0  0  0  0  0  0  0  0  0  0
    3.4038   -1.2497    1.7989 H   0  0  0  0  0  0  0  0  0  0  0  0
    4.1221    0.3604    2.3300 H   0  0  0  0  0  0  0  0  0  0  0  0
    2.8001    1.5527    0.8121 H   0  0  0  0  0  0  0  0  0  0  0  0
    4.3786   -0.8208   -0.1479 H   0  0  0  0  0  0  0  0  0  0  0  0
    4.5916    0.9863   -0.4227 H   0  0  0  0  0  0  0  0  0  0  0  0
    3.4250    0.0848   -1.4116 H   0  0  0  0  0  0  0  0  0  0  0  0
    0.7268    0.0737    0.9713 H   0  0  0  0  0  0  0  0  0  0  0  0
    1.7233    2.0465   -2.3858 H   0  0  0  0  0  0  0  0  0  0  0  0
    0.0361    3.6205   -1.7763 H   0  0  0  0  0  0  0  0  0  0  0  0
    0.6949    5.3025    0.9398 H   0  0  0  0  0  0  0  0  0  0  0  0
   -0.9955    3.9128    0.1822 H   0  0  0  0  0  0  0  0  0  0  0  0
    0.0879    2.9308    1.0811 H   0  0  0  0  0  0  0  0  0  0  0  0
   -1.6779    1.0893    2.1617 H   0  0  0  0  0  0  0  0  0  0  0  0
   -3.0179   -0.5751    1.9369 H   0  0  0  0  0  0  0  0  0  0  0  0
   -1.8217    1.8371   -2.2948 H   0  0  0  0  0  0  0  0  0  0  0  0
   -3.1339    0.1697   -2.4457 H   0  0  0  0  0  0  0  0  0  0  0  0
   -4.0732   -3.1838   -1.6606 H   0  0  0  0  0  0  0  0  0  0  0  0
   -4.1277   -3.5293    0.1462 H   0  0  0  0  0  0  0  0  0  0  0  0
   -1.8323   -3.6930   -1.3621 H   0  0  0  0  0  0  0  0  0  0  0  0
   -1.8653   -1.9054   -1.0353 H   0  0  0  0  0  0  0  0  0  0  0  0
   -1.6804   -4.3181    0.7875 H   0  0  0  0  0  0  0  0  0  0  0  0
   -2.4860   -2.9143    1.4869 H   0  0  0  0  0  0  0  0  0  0  0  0
   -0.5238   -1.6724    1.7215 H   0  0  0  0  0  0  0  0  0  0  0  0
    0.0251   -3.3380    1.8595 H   0  0  0  0  0  0  0  0  0  0  0  0
    2.6224   -1.8545   -0.1122 H   0  0  0  0  0  0  0  0  0  0  0  0
  1  2  1  0
  2  3  1  0
  4  2  1  0
  4  5  1  0
  4 26  1  0
  5  6  2  0
  5  7  1  0
  7  8  1  0
  8  9  1  0
  8 12  1  0
  9 10  2  0
  9 11  1  0
 12 13  1  0
 13 14  2  0
 13 16  1  0
 14 15  1  0
 15 18  2  0
 16 17  2  0
 17 18  1  0
 18 19  1  0
 19 20  1  0
 20 21  1  0
 21 22  1  0
 22 23  1  0
 23 24  1  0
 24 25  2  0
 24 26  1  0
  1 27  1  0
  1 28  1  0
  1 29  1  0
  2 30  1  0
  3 31  1  0
  3 32  1  0
  3 33  1  0
  4 34  1  1
  7 35  1  0
  8 36  1  6
 11 37  1  0
 12 38  1  0
 12 39  1  0
 14 40  1  0
 15 41  1  0
 16 42  1  0
 17 43  1  0
 20 44  1  0
 20 45  1  0
 21 46  1  0
 21 47  1  0
 22 48  1  0
 22 49  1  0
 23 50  1  0
 23 51  1  0
 26 52  1  0
M  END

