99443347
     RDKit          3D

 55 59  0  0  0  0  0  0  0  0999 V2000
    1.8235    1.5043   -0.8064 C   0  0  0  0  0  0  0  0  0  0  0  0
    0.6709    1.9514   -1.4483 C   0  0  0  0  0  0  0  0  0  0  0  0
    0.8531    2.9640   -2.3657 C   0  0  0  0  0  0  0  0  0  0  0  0
    2.0369    3.5099   -2.6517 N   0  0  0  0  0  0  0  0  0  0  0  0
    3.1674    3.0749   -2.0255 C   0  0  0  0  0  0  0  0  0  0  0  0
    4.4628    3.4296   -2.1096 N   0  0  0  0  0  0  0  0  0  0  0  0
    5.1933    2.6736   -1.2576 C   0  0  0  0  0  0  0  0  0  0  0  0
    4.3359    1.8237   -0.6233 C   0  0  0  0  0  0  0  0  0  0  0  0
    3.0375    2.0673   -1.1025 C   0  0  0  0  0  0  0  0  0  0  0  0
    4.5836    0.8238    0.3668 N   0  0  0  0  0  0  0  0  0  0  0  0
   -2.1637    0.2951    0.3781 C   0  0  0  0  0  0  0  0  0  0  0  0
   -3.1467    0.2166   -0.5861 C   0  0  0  0  0  0  0  0  0  0  0  0
   -2.8430    0.7218   -1.8366 C   0  0  0  0  0  0  0  0  0  0  0  0
   -1.5967    1.2886   -2.1181 C   0  0  0  0  0  0  0  0  0  0  0  0
   -0.6249    1.3592   -1.1418 C   0  0  0  0  0  0  0  0  0  0  0  0
   -0.9155    0.8581    0.1114 C   0  0  0  0  0  0  0  0  0  0  0  0
    5.8880    0.5868    0.8413 C   0  0  0  0  0  0  0  0  0  0  0  0
    6.8522    1.2503    0.4027 O   0  0  0  0  0  0  0  0  0  0  0  0
    5.4664   -2.2962    3.2332 C   0  0  0  0  0  0  0  0  0  0  0  0
    6.7249   -2.3122    3.7807 C   0  0  0  0  0  0  0  0  0  0  0  0
    7.6453   -1.4149    3.3707 N   0  0  0  0  0  0  0  0  0  0  0  0
    7.3467   -0.5124    2.4397 C   0  0  0  0  0  0  0  0  0  0  0  0
    6.1110   -0.4391    1.8510 C   0  0  0  0  0  0  0  0  0  0  0  0
    5.1655   -1.3454    2.2581 C   0  0  0  0  0  0  0  0  0  0  0  0
   -4.7626   -0.8064    1.0598 C   0  0  0  0  0  0  0  0  0  0  0  0
   -4.8574   -2.3153    0.9560 C   0  0  0  0  0  0  0  0  0  0  0  0
   -5.9120   -2.5886    0.0021 N   0  0  0  0  0  0  0  0  0  0  0  0
   -5.6746   -2.0660   -1.3026 C   0  0  0  0  0  0  0  0  0  0  0  0
   -5.4430   -0.5728   -1.2454 C   0  0  0  0  0  0  0  0  0  0  0  0
   -4.3938   -0.3581   -0.2700 N   0  0  0  0  0  0  0  0  0  0  0  0
   -7.2179   -2.3356    0.5339 C   0  0  0  0  0  0  0  0  0  0  0  0
    1.7161    0.7095   -0.0788 H   0  0  0  0  0  0  0  0  0  0  0  0
   -0.0504    3.3145   -2.8697 H   0  0  0  0  0  0  0  0  0  0  0  0
    4.8568    4.1778   -2.7373 H   0  0  0  0  0  0  0  0  0  0  0  0
    6.2382    2.7550   -1.1335 H   0  0  0  0  0  0  0  0  0  0  0  0
    3.7665    0.2544    0.7497 H   0  0  0  0  0  0  0  0  0  0  0  0
   -2.2727   -0.0648    1.3917 H   0  0  0  0  0  0  0  0  0  0  0  0
   -3.5479    0.6960   -2.6278 H   0  0  0  0  0  0  0  0  0  0  0  0
   -1.3707    1.6796   -3.0968 H   0  0  0  0  0  0  0  0  0  0  0  0
   -0.1536    0.9197    0.8573 H   0  0  0  0  0  0  0  0  0  0  0  0
    4.7091   -2.9981    3.5373 H   0  0  0  0  0  0  0  0  0  0  0  0
    6.9652   -3.0340    4.5256 H   0  0  0  0  0  0  0  0  0  0  0  0
    8.1148    0.1882    2.1391 H   0  0  0  0  0  0  0  0  0  0  0  0
    4.1867   -1.3440    1.8378 H   0  0  0  0  0  0  0  0  0  0  0  0
   -4.1593   -0.4346    1.8730 H   0  0  0  0  0  0  0  0  0  0  0  0
   -5.8242   -0.4601    1.2518 H   0  0  0  0  0  0  0  0  0  0  0  0
   -5.1397   -2.7669    1.9068 H   0  0  0  0  0  0  0  0  0  0  0  0
   -3.9349   -2.7734    0.5782 H   0  0  0  0  0  0  0  0  0  0  0  0
   -4.8931   -2.6087   -1.8425 H   0  0  0  0  0  0  0  0  0  0  0  0
   -6.6373   -2.2034   -1.8762 H   0  0  0  0  0  0  0  0  0  0  0  0
   -6.3825   -0.1447   -0.7910 H   0  0  0  0  0  0  0  0  0  0  0  0
   -5.3151   -0.1079   -2.2061 H   0  0  0  0  0  0  0  0  0  0  0  0
   -7.8999   -3.2130    0.4512 H   0  0  0  0  0  0  0  0  0  0  0  0
   -7.0877   -2.1493    1.6392 H   0  0  0  0  0  0  0  0  0  0  0  0
   -7.6974   -1.4278    0.1254 H   0  0  0  0  0  0  0  0  0  0  0  0
  1  2  2  0
  1  9  1  0
  2  3  1  0
  2 15  1  0
  3  4  2  0
  4  5  1  0
  5  6  1  0
  5  9  2  0
  6  7  1  0
  7  8  2  0
  8  9  1  0
  8 10  1  0
 10 17  1  0
 11 12  2  0
 11 16  1  0
 12 13  1  0
 12 30  1  0
 13 14  2  0
 14 15  1  0
 15 16  2  0
 17 18  2  0
 17 23  1  0
 19 20  2  0
 19 24  1  0
 20 21  1  0
 21 22  2  0
 22 23  1  0
 23 24  2  0
 25 26  1  0
 25 30  1  0
 26 27  1  0
 27 28  1  0
 27 31  1  0
 28 29  1  0
 29 30  1  0
  1 32  1  0
  3 33  1  0
  6 34  1  0
  7 35  1  0
 10 36  1  0
 11 37  1  0
 13 38  1  0
 14 39  1  0
 16 40  1  0
 19 41  1  0
 20 42  1  0
 22 43  1  0
 24 44  1  0
 25 45  1  0
 25 46  1  0
 26 47  1  0
 26 48  1  0
 28 49  1  0
 28 50  1  0
 29 51  1  0
 29 52  1  0
 31 53  1  0
 31 54  1  0
 31 55  1  0
M  END

