99444878
     RDKit          3D

 59 63  0  0  1  0  0  0  0  0999 V2000
   -3.4013   -0.9751    0.2887 C   0  0  2  0  0  0  0  0  0  0  0  0
    6.6560    0.6282   -1.6598 C   0  0  0  0  0  0  0  0  0  0  0  0
   -5.0592    0.3633   -0.5864 C   0  0  2  0  0  0  0  0  0  0  0  0
    4.8831   -0.3011   -0.3779 C   0  0  0  0  0  0  0  0  0  0  0  0
    5.5335    0.7849   -0.8917 C   0  0  0  0  0  0  0  0  0  0  0  0
   -1.2674    0.2230    0.9270 C   0  0  1  0  0  0  0  0  0  0  0  0
   -2.5373    0.2254    0.1655 C   0  0  2  0  0  0  0  0  0  0  0  0
   -4.2116    1.4643   -0.8532 O   0  0  0  0  0  0  0  0  0  0  0  0
   -3.3487    1.4896    0.2793 C   0  0  1  0  0  0  0  0  0  0  0  0
   -5.2466    0.3069    0.8940 C   0  0  1  0  0  0  0  0  0  0  0  0
   -2.7399   -2.2571    0.4669 C   0  0  0  0  0  0  0  0  0  0  0  0
   -4.3350   -0.9315   -0.9133 C   0  0  0  0  0  0  0  0  0  0  0  0
    7.3482    1.7882   -2.2069 C   0  0  0  0  0  0  0  0  0  0  0  0
    3.7389   -0.1471    0.4054 N   0  0  0  0  0  0  0  0  0  0  0  0
   -1.2188   -1.0053    1.7993 C   0  0  0  0  0  0  0  0  0  0  0  0
   -4.4507   -0.8807    1.4058 C   0  0  0  0  0  0  0  0  0  0  0  0
   -1.6547   -2.2699    1.2202 C   0  0  0  0  0  0  0  0  0  0  0  0
   -4.3906    1.5020    1.3465 C   0  0  0  0  0  0  0  0  0  0  0  0
    7.1217   -0.6383   -1.9084 C   0  0  0  0  0  0  0  0  0  0  0  0
   -0.0532    0.0536   -0.0086 C   0  0  0  0  0  0  0  0  0  0  0  0
    2.4175   -0.1096   -0.0543 C   0  0  0  0  0  0  0  0  0  0  0  0
    5.3663   -1.5613   -0.6389 C   0  0  0  0  0  0  0  0  0  0  0  0
    6.9422    2.9632   -1.9943 O   0  0  0  0  0  0  0  0  0  0  0  0
    6.4834   -1.7489   -1.4016 C   0  0  0  0  0  0  0  0  0  0  0  0
   -0.8139   -0.9596    3.0010 O   0  0  0  0  0  0  0  0  0  0  0  0
    2.2355   -0.2269   -1.3089 O   0  0  0  0  0  0  0  0  0  0  0  0
    1.2278    0.0528    0.7823 C   0  0  0  0  0  0  0  0  0  0  0  0
    5.1038    2.0979   -0.6708 O   0  0  0  0  0  0  0  0  0  0  0  0
    8.4687    1.6126   -2.9726 O   0  0  0  0  0  0  0  0  0  0  0  0
   -6.3413    0.4542   -1.3595 C   0  0  0  0  0  0  0  0  0  0  0  0
    4.7423   -2.7149   -0.1395 O   0  0  0  0  0  0  0  0  0  0  0  0
   -0.9725    1.4477    1.7282 C   0  0  0  0  0  0  0  0  0  0  0  0
   -2.2282    0.2300   -0.9343 H   0  0  0  0  0  0  0  0  0  0  0  0
   -2.7404    2.3959    0.2082 H   0  0  0  0  0  0  0  0  0  0  0  0
   -6.2606    0.3541    1.2523 H   0  0  0  0  0  0  0  0  0  0  0  0
   -3.0673   -3.1955    0.0317 H   0  0  0  0  0  0  0  0  0  0  0  0
   -5.0315   -1.7671   -0.9512 H   0  0  0  0  0  0  0  0  0  0  0  0
   -3.7036   -0.8006   -1.8069 H   0  0  0  0  0  0  0  0  0  0  0  0
    3.8816   -0.0483    1.4546 H   0  0  0  0  0  0  0  0  0  0  0  0
   -5.0110   -1.8142    1.3866 H   0  0  0  0  0  0  0  0  0  0  0  0
   -3.9913   -0.6647    2.3775 H   0  0  0  0  0  0  0  0  0  0  0  0
   -1.0910   -3.1774    1.4255 H   0  0  0  0  0  0  0  0  0  0  0  0
   -4.0763    1.3047    2.3624 H   0  0  0  0  0  0  0  0  0  0  0  0
   -4.9594    2.4433    1.2380 H   0  0  0  0  0  0  0  0  0  0  0  0
    8.0157   -0.7543   -2.5207 H   0  0  0  0  0  0  0  0  0  0  0  0
   -0.2047   -0.9255   -0.5001 H   0  0  0  0  0  0  0  0  0  0  0  0
   -0.1019    0.8386   -0.7757 H   0  0  0  0  0  0  0  0  0  0  0  0
    6.8537   -2.7484   -1.5997 H   0  0  0  0  0  0  0  0  0  0  0  0
    1.3200    1.0789    1.2472 H   0  0  0  0  0  0  0  0  0  0  0  0
    1.1308   -0.6575    1.6016 H   0  0  0  0  0  0  0  0  0  0  0  0
    4.2737    2.2197   -0.1031 H   0  0  0  0  0  0  0  0  0  0  0  0
    9.1944    0.9243   -2.7668 H   0  0  0  0  0  0  0  0  0  0  0  0
   -6.9109    1.3442   -1.0209 H   0  0  0  0  0  0  0  0  0  0  0  0
   -6.0774    0.5367   -2.4351 H   0  0  0  0  0  0  0  0  0  0  0  0
   -6.8978   -0.4700   -1.2174 H   0  0  0  0  0  0  0  0  0  0  0  0
    3.9060   -2.5794    0.4317 H   0  0  0  0  0  0  0  0  0  0  0  0
   -0.2462    1.1341    2.5353 H   0  0  0  0  0  0  0  0  0  0  0  0
   -0.4004    2.1565    1.0857 H   0  0  0  0  0  0  0  0  0  0  0  0
   -1.8021    1.9115    2.2486 H   0  0  0  0  0  0  0  0  0  0  0  0
  2  5  2  0
  3 12  1  0
  4 14  1  0
  4  5  1  0
  6  7  1  0
  1  7  1  0
  3  8  1  0
  7  9  1  0
 10 16  1  0
  1 11  1  1
  1 12  1  0
  2 13  1  0
 14 21  1  0
 15 17  1  0
  1 16  1  0
 11 17  2  0
 10 18  1  0
 19 24  2  0
  6 20  1  6
 21 27  1  0
  4 22  2  0
 13 23  2  0
 22 24  1  0
 15 25  2  0
 21 26  2  0
 20 27  1  0
  5 28  1  0
 13 29  1  0
  3 30  1  6
 22 31  1  0
  6 32  1  0
  3 10  1  0
  8  9  1  0
  9 18  1  0
  6 15  1  0
  2 19  1  0
  7 33  1  6
  9 34  1  6
 10 35  1  6
 11 36  1  0
 12 37  1  0
 12 38  1  0
 14 39  1  0
 16 40  1  0
 16 41  1  0
 17 42  1  0
 18 43  1  0
 18 44  1  0
 19 45  1  0
 20 46  1  0
 20 47  1  0
 24 48  1  0
 27 49  1  0
 27 50  1  0
 28 51  1  0
 29 52  1  0
 30 53  1  0
 30 54  1  0
 30 55  1  0
 31 56  1  0
 32 57  1  0
 32 58  1  0
 32 59  1  0
M  END

