99444129
     RDKit          3D

 64 65  0  0  1  0  0  0  0  0999 V2000
    4.4325    0.6239    2.3193 B   0  0  0  0  0  0  0  0  0  0  0  0
    3.8711   -0.1564    1.0404 C   0  0  2  0  0  0  0  0  0  0  0  0
    4.7607    0.2541   -0.1443 C   0  0  0  0  0  0  0  0  0  0  0  0
    6.1666   -0.1266    0.1726 C   0  0  0  0  0  0  0  0  0  0  0  0
    7.0999    0.2337   -0.9549 C   0  0  0  0  0  0  0  0  0  0  0  0
    7.1026    1.7170   -1.1634 C   0  0  0  0  0  0  0  0  0  0  0  0
    0.2881   -1.0235    0.6198 C   0  0  2  0  0  0  0  0  0  0  0  0
    1.1721    0.1892    0.5929 C   0  0  0  0  0  0  0  0  0  0  0  0
    0.7088   -2.0111   -0.5112 C   0  0  0  0  0  0  0  0  0  0  0  0
   -0.3744   -3.0675   -0.2686 C   0  0  0  0  0  0  0  0  0  0  0  0
   -1.5308   -2.2964    0.4118 C   0  0  0  0  0  0  0  0  0  0  0  0
   -1.8738    0.1420   -0.2976 C   0  0  0  0  0  0  0  0  0  0  0  0
   -4.0735   -0.2259    0.7440 C   0  0  0  0  0  0  0  0  0  0  0  0
   -3.3699   -0.1429   -0.6178 C   0  0  1  0  0  0  0  0  0  0  0  0
   -4.3356    2.0449   -1.9741 C   0  0  0  0  0  0  0  0  0  0  0  0
   -4.4374    3.3692   -1.1705 C   0  0  0  0  0  0  0  0  0  0  0  0
   -7.2436   -2.1949    0.8356 C   0  0  0  0  0  0  0  0  0  0  0  0
   -8.1386   -1.2151    0.4985 C   0  0  0  0  0  0  0  0  0  0  0  0
   -7.8297    0.0911    0.2025 C   0  0  0  0  0  0  0  0  0  0  0  0
   -6.4583    0.3859    0.2714 C   0  0  0  0  0  0  0  0  0  0  0  0
   -5.5064   -0.5423    0.6020 C   0  0  0  0  0  0  0  0  0  0  0  0
   -5.9198   -1.8495    0.8847 C   0  0  0  0  0  0  0  0  0  0  0  0
    2.4981   -0.0239    0.8183 N   0  0  0  0  0  0  0  0  0  0  0  0
    8.0181    2.1068   -2.2423 N   0  0  0  0  0  0  0  0  0  0  0  0
   -1.0759   -0.8704    0.2119 N   0  0  0  0  0  0  0  0  0  0  0  0
   -3.8627    0.9734   -1.3098 N   0  0  0  0  0  0  0  0  0  0  0  0
    4.2205    0.0552    3.6600 O   0  0  0  0  0  0  0  0  0  0  0  0
    4.6833    2.0575    2.2552 O   0  0  0  0  0  0  0  0  0  0  0  0
    0.5834    1.2456    0.3710 O   0  0  0  0  0  0  0  0  0  0  0  0
   -1.5465    1.3035   -0.5536 O   0  0  0  0  0  0  0  0  0  0  0  0
   -4.7364    2.2107   -3.1578 O   0  0  0  0  0  0  0  0  0  0  0  0
    4.1594   -1.2420    1.2419 H   0  0  0  0  0  0  0  0  0  0  0  0
    4.4654   -0.2648   -1.0765 H   0  0  0  0  0  0  0  0  0  0  0  0
    4.7068    1.3539   -0.2313 H   0  0  0  0  0  0  0  0  0  0  0  0
    6.5155    0.3776    1.1249 H   0  0  0  0  0  0  0  0  0  0  0  0
    6.2339   -1.2077    0.4052 H   0  0  0  0  0  0  0  0  0  0  0  0
    8.1389   -0.1603   -0.7729 H   0  0  0  0  0  0  0  0  0  0  0  0
    6.7713   -0.2472   -1.9123 H   0  0  0  0  0  0  0  0  0  0  0  0
    7.4066    2.1684   -0.1835 H   0  0  0  0  0  0  0  0  0  0  0  0
    6.0775    2.0626   -1.3872 H   0  0  0  0  0  0  0  0  0  0  0  0
    0.4077   -1.6272    1.5355 H   0  0  0  0  0  0  0  0  0  0  0  0
    0.5614   -1.5023   -1.4863 H   0  0  0  0  0  0  0  0  0  0  0  0
    1.6980   -2.3833   -0.2981 H   0  0  0  0  0  0  0  0  0  0  0  0
    0.0294   -3.7675    0.5002 H   0  0  0  0  0  0  0  0  0  0  0  0
   -0.6862   -3.5450   -1.1918 H   0  0  0  0  0  0  0  0  0  0  0  0
   -2.4125   -2.5259   -0.1473 H   0  0  0  0  0  0  0  0  0  0  0  0
   -1.6308   -2.5226    1.4636 H   0  0  0  0  0  0  0  0  0  0  0  0
   -3.5922   -0.8897    1.4510 H   0  0  0  0  0  0  0  0  0  0  0  0
   -4.0545    0.8091    1.2046 H   0  0  0  0  0  0  0  0  0  0  0  0
   -3.3736   -1.1093   -1.0632 H   0  0  0  0  0  0  0  0  0  0  0  0
   -4.4943    3.1087   -0.0757 H   0  0  0  0  0  0  0  0  0  0  0  0
   -5.4103    3.7918   -1.4219 H   0  0  0  0  0  0  0  0  0  0  0  0
   -3.5987    3.9971   -1.4277 H   0  0  0  0  0  0  0  0  0  0  0  0
   -7.5139   -3.2167    1.0709 H   0  0  0  0  0  0  0  0  0  0  0  0
   -9.1909   -1.4980    0.4640 H   0  0  0  0  0  0  0  0  0  0  0  0
   -8.5531    0.8477   -0.0639 H   0  0  0  0  0  0  0  0  0  0  0  0
   -6.1669    1.4064    0.0538 H   0  0  0  0  0  0  0  0  0  0  0  0
   -5.1533   -2.5735    1.1433 H   0  0  0  0  0  0  0  0  0  0  0  0
    2.7435    1.3388    0.7000 H   0  0  0  0  0  0  0  0  0  0  0  0
    8.6028    1.2716   -2.4512 H   0  0  0  0  0  0  0  0  0  0  0  0
    8.6304    2.8717   -1.8212 H   0  0  0  0  0  0  0  0  0  0  0  0
   -4.0225    0.2143   -2.4288 H   0  0  0  0  0  0  0  0  0  0  0  0
    3.8657   -0.8873    3.5621 H   0  0  0  0  0  0  0  0  0  0  0  0
    5.5469    2.2932    2.6529 H   0  0  0  0  0  0  0  0  0  0  0  0
  2  1  1  0
  1 27  1  0
  1 28  1  0
  2  3  1  0
  2 23  1  0
  3  4  1  0
  4  5  1  0
  5  6  1  0
  6 24  1  0
  7  8  1  0
  7  9  1  0
  7 25  1  0
  8 23  1  0
  8 29  2  0
  9 10  1  0
 10 11  1  0
 11 25  1  0
 12 14  1  0
 12 25  1  0
 12 30  2  0
 13 14  1  0
 13 21  1  0
 14 26  1  0
 15 16  1  0
 15 26  1  0
 15 31  2  0
 17 18  2  0
 17 22  1  0
 18 19  1  0
 19 20  2  0
 20 21  1  0
 21 22  2  0
  2 32  1  1
  3 33  1  0
  3 34  1  0
  4 35  1  0
  4 36  1  0
  5 37  1  0
  5 38  1  0
  6 39  1  0
  6 40  1  0
  7 41  1  1
  9 42  1  0
  9 43  1  0
 10 44  1  0
 10 45  1  0
 11 46  1  0
 11 47  1  0
 13 48  1  0
 13 49  1  0
 14 50  1  6
 16 51  1  0
 16 52  1  0
 16 53  1  0
 17 54  1  0
 18 55  1  0
 19 56  1  0
 20 57  1  0
 22 58  1  0
 23 59  1  0
 24 60  1  0
 24 61  1  0
 26 62  1  0
 27 63  1  0
 28 64  1  0
M  END

