99443291
     RDKit          3D

 68 71  0  0  1  0  0  0  0  0999 V2000
   -1.3993    0.2264   -0.2323 C   0  0  1  0  0  0  0  0  0  0  0  0
   -0.2850    1.1713   -0.7174 C   0  0  2  0  0  0  0  0  0  0  0  0
    1.4844   -0.3043   -0.1207 C   0  0  1  0  0  0  0  0  0  0  0  0
    0.9123    1.0847    0.1266 C   0  0  1  0  0  0  0  0  0  0  0  0
    2.7418   -0.5578    0.6425 C   0  0  1  0  0  0  0  0  0  0  0  0
   -2.4833    0.6380   -1.1181 C   0  0  2  0  0  0  0  0  0  0  0  0
   -0.8439   -1.1604   -0.5168 C   0  0  0  0  0  0  0  0  0  0  0  0
    0.4983   -1.4015    0.0747 C   0  0  0  0  0  0  0  0  0  0  0  0
   -0.9850    2.4693   -0.7928 C   0  0  0  0  0  0  0  0  0  0  0  0
   -2.2232    2.0579   -1.5789 C   0  0  0  0  0  0  0  0  0  0  0  0
    1.9652    2.0480   -0.4131 C   0  0  1  0  0  0  0  0  0  0  0  0
    3.7234    0.5645    0.6100 C   0  0  2  0  0  0  0  0  0  0  0  0
    3.1428    1.9249    0.5300 C   0  0  0  0  0  0  0  0  0  0  0  0
   -3.8964    0.5053   -0.7577 C   0  0  1  0  0  0  0  0  0  0  0  0
   -1.5127    0.3979    1.2266 C   0  0  0  0  0  0  0  0  0  0  0  0
    2.4495   -0.9953    2.0688 C   0  0  0  0  0  0  0  0  0  0  0  0
    3.4181   -1.7624   -0.0279 C   0  0  0  0  0  0  0  0  0  0  0  0
   -5.8281   -0.9509   -0.1217 C   0  0  0  0  0  0  0  0  0  0  0  0
   -4.3541   -0.9141   -0.4818 C   0  0  0  0  0  0  0  0  0  0  0  0
    4.7549    0.3878   -0.5065 C   0  0  0  0  0  0  0  0  0  0  0  0
   -4.4255    1.4470    0.2741 C   0  0  0  0  0  0  0  0  0  0  0  0
   -6.2587   -2.3177    0.1406 C   0  0  0  0  0  0  0  0  0  0  0  0
    4.8615   -1.8717    0.4116 C   0  0  0  0  0  0  0  0  0  0  0  0
    5.6969   -0.7049   -0.0268 C   0  0  1  0  0  0  0  0  0  0  0  0
   -5.4507   -3.2653    0.0554 O   0  0  0  0  0  0  0  0  0  0  0  0
   -7.5674   -2.5786    0.4866 O   0  0  0  0  0  0  0  0  0  0  0  0
    6.6721   -1.0147   -0.9386 O   0  0  0  0  0  0  0  0  0  0  0  0
    2.4115    1.6125   -1.6665 O   0  0  0  0  0  0  0  0  0  0  0  0
   -0.0435    0.8319   -1.7370 H   0  0  0  0  0  0  0  0  0  0  0  0
    1.7657   -0.3076   -1.2156 H   0  0  0  0  0  0  0  0  0  0  0  0
    0.7964    1.3242    1.1862 H   0  0  0  0  0  0  0  0  0  0  0  0
   -2.3576    0.0121   -2.0636 H   0  0  0  0  0  0  0  0  0  0  0  0
   -0.7683   -1.3047   -1.6241 H   0  0  0  0  0  0  0  0  0  0  0  0
   -1.5265   -1.9597   -0.1299 H   0  0  0  0  0  0  0  0  0  0  0  0
    0.4585   -1.7458    1.1509 H   0  0  0  0  0  0  0  0  0  0  0  0
    0.9219   -2.3065   -0.4592 H   0  0  0  0  0  0  0  0  0  0  0  0
   -0.4174    3.2604   -1.3272 H   0  0  0  0  0  0  0  0  0  0  0  0
   -1.3318    2.9032    0.1412 H   0  0  0  0  0  0  0  0  0  0  0  0
   -1.9072    2.1182   -2.6533 H   0  0  0  0  0  0  0  0  0  0  0  0
   -3.0728    2.7364   -1.4209 H   0  0  0  0  0  0  0  0  0  0  0  0
    1.6150    3.0801   -0.4102 H   0  0  0  0  0  0  0  0  0  0  0  0
    4.3225    0.5054    1.5609 H   0  0  0  0  0  0  0  0  0  0  0  0
    3.9439    2.6440    0.2941 H   0  0  0  0  0  0  0  0  0  0  0  0
    2.7462    2.1932    1.5477 H   0  0  0  0  0  0  0  0  0  0  0  0
   -4.4659    0.7958   -1.6994 H   0  0  0  0  0  0  0  0  0  0  0  0
   -1.4243    1.4689    1.5800 H   0  0  0  0  0  0  0  0  0  0  0  0
   -0.5850   -0.0773    1.6755 H   0  0  0  0  0  0  0  0  0  0  0  0
   -2.3287   -0.1284    1.7342 H   0  0  0  0  0  0  0  0  0  0  0  0
    2.2512   -2.0902    2.0745 H   0  0  0  0  0  0  0  0  0  0  0  0
    1.6598   -0.4068    2.5429 H   0  0  0  0  0  0  0  0  0  0  0  0
    3.4086   -0.8628    2.6307 H   0  0  0  0  0  0  0  0  0  0  0  0
    3.3515   -1.6514   -1.1263 H   0  0  0  0  0  0  0  0  0  0  0  0
    2.8958   -2.6693    0.2766 H   0  0  0  0  0  0  0  0  0  0  0  0
   -6.4053   -0.4684   -0.9506 H   0  0  0  0  0  0  0  0  0  0  0  0
   -5.9731   -0.2668    0.7510 H   0  0  0  0  0  0  0  0  0  0  0  0
   -3.8274   -1.3869    0.3721 H   0  0  0  0  0  0  0  0  0  0  0  0
   -4.2518   -1.5535   -1.3875 H   0  0  0  0  0  0  0  0  0  0  0  0
    4.2897    0.1559   -1.4704 H   0  0  0  0  0  0  0  0  0  0  0  0
    5.3353    1.3515   -0.5343 H   0  0  0  0  0  0  0  0  0  0  0  0
   -4.4148    0.9261    1.2540 H   0  0  0  0  0  0  0  0  0  0  0  0
   -5.5017    1.7169    0.1020 H   0  0  0  0  0  0  0  0  0  0  0  0
   -3.8865    2.3764    0.4041 H   0  0  0  0  0  0  0  0  0  0  0  0
    5.2699   -2.7826   -0.0580 H   0  0  0  0  0  0  0  0  0  0  0  0
    4.8724   -2.0347    1.5018 H   0  0  0  0  0  0  0  0  0  0  0  0
    6.1939   -0.2873    0.8903 H   0  0  0  0  0  0  0  0  0  0  0  0
   -7.9144   -3.3977    0.9246 H   0  0  0  0  0  0  0  0  0  0  0  0
    6.4669   -1.8387   -1.4134 H   0  0  0  0  0  0  0  0  0  0  0  0
    2.6197    2.3909   -2.2661 H   0  0  0  0  0  0  0  0  0  0  0  0
  1  2  1  0
  1  6  1  0
  1  7  1  0
  1 15  1  1
  2  4  1  0
  2  9  1  0
  3  8  1  0
  3  5  1  0
  3  4  1  0
  4 11  1  0
  5 12  1  0
  5 16  1  1
  5 17  1  0
  6 10  1  0
  6 14  1  0
  7  8  1  0
  9 10  1  0
 11 13  1  0
 12 20  1  0
 12 13  1  0
 14 19  1  0
 14 21  1  0
 17 23  1  0
 18 19  1  0
 18 22  1  0
 20 24  1  0
 23 24  1  0
 22 25  2  0
 22 26  1  0
 24 27  1  0
 11 28  1  0
  2 29  1  6
  3 30  1  6
  4 31  1  1
  6 32  1  6
  7 33  1  0
  7 34  1  0
  8 35  1  0
  8 36  1  0
  9 37  1  0
  9 38  1  0
 10 39  1  0
 10 40  1  0
 11 41  1  6
 12 42  1  1
 13 43  1  0
 13 44  1  0
 14 45  1  6
 15 46  1  0
 15 47  1  0
 15 48  1  0
 16 49  1  0
 16 50  1  0
 16 51  1  0
 17 52  1  0
 17 53  1  0
 18 54  1  0
 18 55  1  0
 19 56  1  0
 19 57  1  0
 20 58  1  0
 20 59  1  0
 21 60  1  0
 21 61  1  0
 21 62  1  0
 23 63  1  0
 23 64  1  0
 24 65  1  1
 26 66  1  0
 27 67  1  0
 28 68  1  0
M  END

