99444379
     RDKit          3D

 28 29  0  0  0  0  0  0  0  0999 V2000
   -1.2596   -0.1527    0.4808 C   0  0  0  0  0  0  0  0  0  0  0  0
   -0.8116   -1.3299    1.0738 C   0  0  0  0  0  0  0  0  0  0  0  0
    1.3784   -0.8642    0.5454 C   0  0  0  0  0  0  0  0  0  0  0  0
    2.7318   -1.2126    0.5699 C   0  0  0  0  0  0  0  0  0  0  0  0
    3.6626   -0.3870   -0.0001 C   0  0  0  0  0  0  0  0  0  0  0  0
    3.3357    0.8046   -0.6160 C   0  0  0  0  0  0  0  0  0  0  0  0
    2.0005    1.1423   -0.6368 C   0  0  0  0  0  0  0  0  0  0  0  0
    1.0332    0.3208   -0.0646 C   0  0  0  0  0  0  0  0  0  0  0  0
   -0.3215    0.6784   -0.0937 C   0  0  0  0  0  0  0  0  0  0  0  0
   -2.6991    0.1920    0.4645 C   0  0  0  0  0  0  0  0  0  0  0  0
   -3.4484   -0.6002   -0.5981 C   0  0  0  0  0  0  0  0  0  0  0  0
   -0.6178    1.9465   -0.7625 C   0  0  0  0  0  0  0  0  0  0  0  0
   -1.6582   -2.1182    1.6137 O   0  0  0  0  0  0  0  0  0  0  0  0
    0.4668   -1.6184    1.0740 O   0  0  0  0  0  0  0  0  0  0  0  0
    4.9910   -0.7947    0.0603 O   0  0  0  0  0  0  0  0  0  0  0  0
   -3.3510   -1.9489   -0.3743 O   0  0  0  0  0  0  0  0  0  0  0  0
    2.9575   -2.1494    1.0579 H   0  0  0  0  0  0  0  0  0  0  0  0
    4.1061    1.4223   -1.0517 H   0  0  0  0  0  0  0  0  0  0  0  0
    1.7299    2.0706   -1.1148 H   0  0  0  0  0  0  0  0  0  0  0  0
   -3.1296   -0.0767    1.4756 H   0  0  0  0  0  0  0  0  0  0  0  0
   -2.9118    1.2423    0.3357 H   0  0  0  0  0  0  0  0  0  0  0  0
   -3.0354   -0.3797   -1.6074 H   0  0  0  0  0  0  0  0  0  0  0  0
   -4.5114   -0.2835   -0.5519 H   0  0  0  0  0  0  0  0  0  0  0  0
   -0.2633    1.9221   -1.8296 H   0  0  0  0  0  0  0  0  0  0  0  0
   -1.6464    2.2770   -0.7831 H   0  0  0  0  0  0  0  0  0  0  0  0
    0.0048    2.7353   -0.2430 H   0  0  0  0  0  0  0  0  0  0  0  0
    5.5107   -0.4872    0.8726 H   0  0  0  0  0  0  0  0  0  0  0  0
   -4.2440   -2.3509   -0.4198 H   0  0  0  0  0  0  0  0  0  0  0  0
  1  2  1  0
  1  9  2  0
  1 10  1  0
  2 13  2  0
  2 14  1  0
  3  4  1  0
  3  8  2  0
  3 14  1  0
  4  5  2  0
  5  6  1  0
  5 15  1  0
  6  7  2  0
  7  8  1  0
  8  9  1  0
  9 12  1  0
 10 11  1  0
 11 16  1  0
  4 17  1  0
  6 18  1  0
  7 19  1  0
 10 20  1  0
 10 21  1  0
 11 22  1  0
 11 23  1  0
 12 24  1  0
 12 25  1  0
 12 26  1  0
 15 27  1  0
 16 28  1  0
M  END

