99444732
     RDKit          3D

 42 44  0  0  1  0  0  0  0  0999 V2000
   -0.9585    0.4302    0.1036 C   0  0  0  0  0  0  0  0  0  0  0  0
   -1.1292   -0.8999   -0.1899 C   0  0  0  0  0  0  0  0  0  0  0  0
   -2.4022   -1.4212   -0.3119 C   0  0  0  0  0  0  0  0  0  0  0  0
   -2.6257   -2.7523   -0.6060 C   0  0  0  0  0  0  0  0  0  0  0  0
   -1.5589   -3.5699   -0.7797 C   0  0  0  0  0  0  0  0  0  0  0  0
   -0.2636   -3.0648   -0.6611 C   0  0  0  0  0  0  0  0  0  0  0  0
   -0.0090   -1.7248   -0.3649 C   0  0  0  0  0  0  0  0  0  0  0  0
    1.3526   -1.2326   -0.2488 C   0  0  0  0  0  0  0  0  0  0  0  0
    2.2924   -2.0843   -0.4307 O   0  0  0  0  0  0  0  0  0  0  0  0
    1.7995    0.0182    0.0289 O   0  0  0  0  0  0  0  0  0  0  0  0
    3.1442    0.3842    0.1172 C   0  0  1  0  0  0  0  0  0  0  0  0
    3.5244    1.4883   -0.8004 C   0  0  1  0  0  0  0  0  0  0  0  0
    4.5095    2.3245   -0.0783 C   0  0  0  0  0  0  0  0  0  0  0  0
    4.5041    2.0159    1.2044 C   0  0  0  0  0  0  0  0  0  0  0  0
    3.5148    0.9411    1.4739 C   0  0  2  0  0  0  0  0  0  0  0  0
    4.0835   -0.0802    2.2597 O   0  0  0  0  0  0  0  0  0  0  0  0
    4.2151    0.9147   -1.8927 O   0  0  0  0  0  0  0  0  0  0  0  0
    0.7446   -3.9366   -0.8470 O   0  0  0  0  0  0  0  0  0  0  0  0
   -3.5467   -0.6424   -0.1473 C   0  0  0  0  0  0  0  0  0  0  0  0
   -3.3604    0.6893    0.1467 C   0  0  0  0  0  0  0  0  0  0  0  0
   -2.1002    1.2225    0.2713 C   0  0  0  0  0  0  0  0  0  0  0  0
   -1.9350    2.5506    0.5643 O   0  0  0  0  0  0  0  0  0  0  0  0
   -2.9707    3.4621    0.7588 C   0  0  0  0  0  0  0  0  0  0  0  0
   -4.8999   -1.2310   -0.2845 C   0  0  0  0  0  0  0  0  0  0  0  0
   -0.0023    0.8612    0.2039 H   0  0  0  0  0  0  0  0  0  0  0  0
   -3.6635   -3.1284   -0.6948 H   0  0  0  0  0  0  0  0  0  0  0  0
   -1.7285   -4.6070   -1.0088 H   0  0  0  0  0  0  0  0  0  0  0  0
    3.7523   -0.5353   -0.0815 H   0  0  0  0  0  0  0  0  0  0  0  0
    2.6631    2.0829   -1.1701 H   0  0  0  0  0  0  0  0  0  0  0  0
    5.1422    3.0774   -0.5291 H   0  0  0  0  0  0  0  0  0  0  0  0
    5.1201    2.4622    1.9810 H   0  0  0  0  0  0  0  0  0  0  0  0
    2.6541    1.4067    1.9866 H   0  0  0  0  0  0  0  0  0  0  0  0
    4.7286   -0.5650    1.7094 H   0  0  0  0  0  0  0  0  0  0  0  0
    3.5844    0.6928   -2.6286 H   0  0  0  0  0  0  0  0  0  0  0  0
    1.6662   -4.0626   -0.8694 H   0  0  0  0  0  0  0  0  0  0  0  0
   -4.2501    1.3077    0.2776 H   0  0  0  0  0  0  0  0  0  0  0  0
   -3.3811    3.8589   -0.2082 H   0  0  0  0  0  0  0  0  0  0  0  0
   -3.8308    3.0526    1.3207 H   0  0  0  0  0  0  0  0  0  0  0  0
   -2.6035    4.3617    1.3086 H   0  0  0  0  0  0  0  0  0  0  0  0
   -5.1087   -1.5006   -1.3248 H   0  0  0  0  0  0  0  0  0  0  0  0
   -5.6488   -0.4798    0.0229 H   0  0  0  0  0  0  0  0  0  0  0  0
   -5.0183   -2.0871    0.4191 H   0  0  0  0  0  0  0  0  0  0  0  0
  1  2  2  0
  1 21  1  0
  2  3  1  0
  2  7  1  0
  3  4  1  0
  3 19  2  0
  4  5  2  0
  5  6  1  0
  6  7  2  0
  6 18  1  0
  7  8  1  0
  8  9  2  0
  8 10  1  0
 11 10  1  0
 11 12  1  0
 11 15  1  0
 12 13  1  0
 12 17  1  0
 13 14  2  0
 14 15  1  0
 15 16  1  0
 19 20  1  0
 19 24  1  0
 20 21  2  0
 21 22  1  0
 22 23  1  0
  1 25  1  0
  4 26  1  0
  5 27  1  0
 11 28  1  6
 12 29  1  6
 13 30  1  0
 14 31  1  0
 15 32  1  1
 16 33  1  0
 17 34  1  0
 18 35  1  0
 20 36  1  0
 23 37  1  0
 23 38  1  0
 23 39  1  0
 24 40  1  0
 24 41  1  0
 24 42  1  0
M  END

