99445179
     RDKit          3D

 44 47  0  0  0  0  0  0  0  0999 V2000
    6.9370   -1.0193   -0.9740 C   0  0  0  0  0  0  0  0  0  0  0  0
    2.0019   -1.1968    3.1390 N   0  0  0  0  0  0  0  0  0  0  0  0
    5.5132    0.9050   -1.6146 C   0  0  0  0  0  0  0  0  0  0  0  0
    4.3883    1.7141   -1.5048 C   0  0  0  0  0  0  0  0  0  0  0  0
    3.4836    1.3815   -0.4882 C   0  0  0  0  0  0  0  0  0  0  0  0
    0.9224   -0.7001    2.5034 C   0  0  0  0  0  0  0  0  0  0  0  0
   -0.4259   -0.7882    2.7329 C   0  0  0  0  0  0  0  0  0  0  0  0
   -0.8036    0.4734    0.7189 C   0  0  0  0  0  0  0  0  0  0  0  0
   -3.0941    0.6512   -0.1418 C   0  0  0  0  0  0  0  0  0  0  0  0
    5.7494   -0.1602   -0.7900 C   0  0  0  0  0  0  0  0  0  0  0  0
    4.8140   -0.4391    0.2022 C   0  0  0  0  0  0  0  0  0  0  0  0
   -1.2712   -0.1954    1.8315 C   0  0  0  0  0  0  0  0  0  0  0  0
   -4.5173   -1.2511    0.3289 C   0  0  0  0  0  0  0  0  0  0  0  0
    3.0787   -0.8682    2.4830 N   0  0  0  0  0  0  0  0  0  0  0  0
    8.1304   -0.4029   -0.7892 F   0  0  0  0  0  0  0  0  0  0  0  0
    6.8835   -1.6767   -2.2088 F   0  0  0  0  0  0  0  0  0  0  0  0
    6.8571   -2.0509   -0.0329 F   0  0  0  0  0  0  0  0  0  0  0  0
    3.6549    0.3328    0.3696 C   0  0  0  0  0  0  0  0  0  0  0  0
    2.7211   -0.1311    1.3806 C   0  0  0  0  0  0  0  0  0  0  0  0
   -1.7138    0.9864   -0.2748 N   0  0  0  0  0  0  0  0  0  0  0  0
   -3.2148   -0.8839   -0.3357 C   0  0  0  0  0  0  0  0  0  0  0  0
   -5.6089   -0.6167   -0.4875 C   0  0  0  0  0  0  0  0  0  0  0  0
   -5.4242    0.8280   -0.7920 C   0  0  0  0  0  0  0  0  0  0  0  0
   -4.0039    1.2306   -1.1832 C   0  0  0  0  0  0  0  0  0  0  0  0
    0.5300    0.5284    0.5547 N   0  0  0  0  0  0  0  0  0  0  0  0
    1.3792   -0.0445    1.4225 N   0  0  0  0  0  0  0  0  0  0  0  0
    6.1887    1.1961   -2.4209 H   0  0  0  0  0  0  0  0  0  0  0  0
    4.1897    2.5613   -2.1606 H   0  0  0  0  0  0  0  0  0  0  0  0
    2.5809    1.9834   -0.3360 H   0  0  0  0  0  0  0  0  0  0  0  0
   -0.7482   -1.3273    3.6188 H   0  0  0  0  0  0  0  0  0  0  0  0
   -3.4736    0.9644    0.8386 H   0  0  0  0  0  0  0  0  0  0  0  0
    4.9732   -1.2861    0.8708 H   0  0  0  0  0  0  0  0  0  0  0  0
   -2.3494   -0.2529    2.0201 H   0  0  0  0  0  0  0  0  0  0  0  0
   -4.5391   -0.9624    1.4071 H   0  0  0  0  0  0  0  0  0  0  0  0
   -4.6782   -2.3676    0.2756 H   0  0  0  0  0  0  0  0  0  0  0  0
   -1.4103    1.5745   -1.0621 H   0  0  0  0  0  0  0  0  0  0  0  0
   -3.3981   -1.0538   -1.4378 H   0  0  0  0  0  0  0  0  0  0  0  0
   -2.3434   -1.4239    0.0057 H   0  0  0  0  0  0  0  0  0  0  0  0
   -5.7431   -1.2450   -1.3971 H   0  0  0  0  0  0  0  0  0  0  0  0
   -6.5587   -0.7029    0.1134 H   0  0  0  0  0  0  0  0  0  0  0  0
   -5.7537    1.4389    0.0848 H   0  0  0  0  0  0  0  0  0  0  0  0
   -6.1258    1.0812   -1.6225 H   0  0  0  0  0  0  0  0  0  0  0  0
   -3.9940    2.3382   -1.1208 H   0  0  0  0  0  0  0  0  0  0  0  0
   -3.7841    0.8778   -2.2168 H   0  0  0  0  0  0  0  0  0  0  0  0
  1 15  1  0
  1 10  1  0
  2 14  1  0
  3  4  2  0
  4  5  1  0
  2  6  2  0
  6  7  1  0
  8 12  1  0
  8 25  2  0
  9 21  1  0
  9 20  1  0
  3 10  1  0
 10 11  2  0
 11 18  1  0
  7 12  2  0
 13 21  1  0
  1 16  1  0
  1 17  1  0
  5 18  2  0
 14 19  2  0
 18 19  1  0
  8 20  1  0
 13 22  1  0
 22 23  1  0
 23 24  1  0
  9 24  1  0
 25 26  1  0
  6 26  1  0
 19 26  1  0
  3 27  1  0
  4 28  1  0
  5 29  1  0
  7 30  1  0
  9 31  1  0
 11 32  1  0
 12 33  1  0
 13 34  1  0
 13 35  1  0
 20 36  1  0
 21 37  1  0
 21 38  1  0
 22 39  1  0
 22 40  1  0
 23 41  1  0
 23 42  1  0
 24 43  1  0
 24 44  1  0
M  END

