99444134
     RDKit          3D

 39 41  0  0  1  0  0  0  0  0999 V2000
   -0.7690   -2.9338   -0.7822 O   0  0  0  0  0  0  0  0  0  0  0  0
   -1.2390   -1.8000   -0.4666 C   0  0  0  0  0  0  0  0  0  0  0  0
   -2.6522   -1.5669   -0.1173 C   0  0  0  0  0  0  0  0  0  0  0  0
   -2.7376   -0.2067    0.1581 C   0  0  0  0  0  0  0  0  0  0  0  0
   -3.9907    0.2974    0.5239 C   0  0  0  0  0  0  0  0  0  0  0  0
   -3.7511   -2.3902   -0.0354 C   0  0  0  0  0  0  0  0  0  0  0  0
   -4.9561   -1.8402    0.3288 C   0  0  0  0  0  0  0  0  0  0  0  0
   -5.1114   -0.5003    0.6154 C   0  0  0  0  0  0  0  0  0  0  0  0
   -6.3941    0.0685    0.9999 C   0  0  0  0  0  0  0  0  0  0  0  0
   -6.5637    1.4096    1.2898 O   0  0  0  0  0  0  0  0  0  0  0  0
   -7.3931   -0.6854    1.0733 O   0  0  0  0  0  0  0  0  0  0  0  0
   -0.5173   -0.5783   -0.3917 N   0  0  0  0  0  0  0  0  0  0  0  0
   -1.4337    0.4237   -0.0045 C   0  0  0  0  0  0  0  0  0  0  0  0
   -1.2017    1.6677    0.1803 O   0  0  0  0  0  0  0  0  0  0  0  0
    0.8971   -0.3447   -0.6531 C   0  0  1  0  0  0  0  0  0  0  0  0
    1.1135    0.6340   -1.7106 C   0  0  0  0  0  0  0  0  0  0  0  0
    0.0631    1.3470   -2.2773 O   0  0  0  0  0  0  0  0  0  0  0  0
    2.2605    0.8699   -2.1501 O   0  0  0  0  0  0  0  0  0  0  0  0
    1.6069    0.0518    0.6171 C   0  0  0  0  0  0  0  0  0  0  0  0
    3.0587    0.3002    0.3912 C   0  0  0  0  0  0  0  0  0  0  0  0
    3.5649    1.5363    0.1142 C   0  0  0  0  0  0  0  0  0  0  0  0
    4.8993    1.7271   -0.0881 C   0  0  0  0  0  0  0  0  0  0  0  0
    5.7845    0.6635   -0.0175 C   0  0  0  0  0  0  0  0  0  0  0  0
    7.1321    0.8802   -0.2260 O   0  0  0  0  0  0  0  0  0  0  0  0
    5.2742   -0.5846    0.2621 C   0  0  0  0  0  0  0  0  0  0  0  0
    3.9283   -0.7770    0.4662 C   0  0  0  0  0  0  0  0  0  0  0  0
   -4.0214    1.3682    0.7328 H   0  0  0  0  0  0  0  0  0  0  0  0
   -3.6750   -3.4390   -0.2499 H   0  0  0  0  0  0  0  0  0  0  0  0
   -5.8669   -2.4442    0.4115 H   0  0  0  0  0  0  0  0  0  0  0  0
   -6.5879    2.0400    0.4779 H   0  0  0  0  0  0  0  0  0  0  0  0
    1.3221   -1.3491   -0.9346 H   0  0  0  0  0  0  0  0  0  0  0  0
    0.0305    2.3419   -2.3682 H   0  0  0  0  0  0  0  0  0  0  0  0
    1.5377   -0.7816    1.3532 H   0  0  0  0  0  0  0  0  0  0  0  0
    1.1582    0.9527    1.0836 H   0  0  0  0  0  0  0  0  0  0  0  0
    2.8980    2.3746    0.0556 H   0  0  0  0  0  0  0  0  0  0  0  0
    5.3356    2.7039   -0.3116 H   0  0  0  0  0  0  0  0  0  0  0  0
    7.5281    1.7859   -0.4321 H   0  0  0  0  0  0  0  0  0  0  0  0
    5.9369   -1.4404    0.3252 H   0  0  0  0  0  0  0  0  0  0  0  0
    3.5319   -1.7819    0.6894 H   0  0  0  0  0  0  0  0  0  0  0  0
  1  2  2  0
  2 12  1  0
  2  3  1  0
  3  4  2  0
  3  6  1  0
  4 13  1  0
  4  5  1  0
  5  8  2  0
  6  7  2  0
  7  8  1  0
  8  9  1  0
  9 11  2  0
  9 10  1  0
 15 12  1  0
 12 13  1  0
 13 14  2  0
 15 16  1  0
 15 19  1  0
 16 18  2  0
 16 17  1  0
 19 20  1  0
 20 21  2  0
 20 26  1  0
 21 22  1  0
 22 23  2  0
 23 24  1  0
 23 25  1  0
 25 26  2  0
  5 27  1  0
  6 28  1  0
  7 29  1  0
 10 30  1  0
 15 31  1  6
 17 32  1  0
 19 33  1  0
 19 34  1  0
 21 35  1  0
 22 36  1  0
 24 37  1  0
 25 38  1  0
 26 39  1  0
M  END

